<routes>
        <vType id="car" accel="0.8" decel="4.5" sigma="0.5" length="5" minGap="2.5" maxSpeed="22.352" guiShape="passenger"/>

        <route id="down" edges="E12 E23 E34 E45 E56 E67 E78 E89 E90" />
        <route id="up" edges="E09 E98 E87 E76 E65 E54 E43 E32 E21" />
        
    <vehicle id="up_0" type="car" route="up" depart="0" color="0,0,1"/>
    <vehicle id="up_1" type="car" route="up" depart="1" color="0,0,1"/>
    <vehicle id="up_2" type="car" route="up" depart="3" color="0,0,1"/>
    <vehicle id="up_3" type="car" route="up" depart="4" color="0,0,1"/>
    <vehicle id="down_4" type="car" route="down" depart="5" color="0,1,0"/>
    <vehicle id="down_5" type="car" route="down" depart="6" color="0,1,0"/>
    <vehicle id="up_6" type="car" route="up" depart="6" color="0,0,1"/>
    <vehicle id="down_7" type="car" route="down" depart="8" color="0,1,0"/>
    <vehicle id="up_8" type="car" route="up" depart="9" color="0,0,1"/>
    <vehicle id="up_9" type="car" route="up" depart="11" color="0,0,1"/>
    <vehicle id="down_10" type="car" route="down" depart="13" color="0,1,0"/>
    <vehicle id="up_11" type="car" route="up" depart="13" color="0,0,1"/>
    <vehicle id="up_12" type="car" route="up" depart="20" color="0,0,1"/>
    <vehicle id="down_13" type="car" route="down" depart="21" color="0,1,0"/>
    <vehicle id="down_14" type="car" route="down" depart="22" color="0,1,0"/>
    <vehicle id="up_15" type="car" route="up" depart="22" color="0,0,1"/>
    <vehicle id="down_16" type="car" route="down" depart="23" color="0,1,0"/>
    <vehicle id="up_17" type="car" route="up" depart="25" color="0,0,1"/>
    <vehicle id="down_18" type="car" route="down" depart="26" color="0,1,0"/>
    <vehicle id="down_19" type="car" route="down" depart="28" color="0,1,0"/>
    <vehicle id="down_20" type="car" route="down" depart="29" color="0,1,0"/>
    <vehicle id="down_21" type="car" route="down" depart="33" color="0,1,0"/>
    <vehicle id="up_22" type="car" route="up" depart="33" color="0,0,1"/>
    <vehicle id="up_23" type="car" route="up" depart="34" color="0,0,1"/>
    <vehicle id="down_24" type="car" route="down" depart="35" color="0,1,0"/>
    <vehicle id="down_25" type="car" route="down" depart="39" color="0,1,0"/>
    <vehicle id="up_26" type="car" route="up" depart="39" color="0,0,1"/>
    <vehicle id="up_27" type="car" route="up" depart="40" color="0,0,1"/>
    <vehicle id="up_28" type="car" route="up" depart="42" color="0,0,1"/>
    <vehicle id="down_29" type="car" route="down" depart="44" color="0,1,0"/>
    <vehicle id="up_30" type="car" route="up" depart="44" color="0,0,1"/>
    <vehicle id="down_31" type="car" route="down" depart="45" color="0,1,0"/>
    <vehicle id="down_32" type="car" route="down" depart="47" color="0,1,0"/>
    <vehicle id="down_33" type="car" route="down" depart="50" color="0,1,0"/>
    <vehicle id="down_34" type="car" route="down" depart="52" color="0,1,0"/>
    <vehicle id="down_35" type="car" route="down" depart="53" color="0,1,0"/>
    <vehicle id="up_36" type="car" route="up" depart="55" color="0,0,1"/>
    <vehicle id="up_37" type="car" route="up" depart="56" color="0,0,1"/>
    <vehicle id="up_38" type="car" route="up" depart="59" color="0,0,1"/>
    <vehicle id="down_39" type="car" route="down" depart="62" color="0,1,0"/>
    <vehicle id="down_40" type="car" route="down" depart="63" color="0,1,0"/>
    <vehicle id="up_41" type="car" route="up" depart="65" color="0,0,1"/>
    <vehicle id="down_42" type="car" route="down" depart="67" color="0,1,0"/>
    <vehicle id="down_43" type="car" route="down" depart="68" color="0,1,0"/>
    <vehicle id="up_44" type="car" route="up" depart="69" color="0,0,1"/>
    <vehicle id="down_45" type="car" route="down" depart="71" color="0,1,0"/>
    <vehicle id="up_46" type="car" route="up" depart="72" color="0,0,1"/>
    <vehicle id="down_47" type="car" route="down" depart="74" color="0,1,0"/>
    <vehicle id="down_48" type="car" route="down" depart="77" color="0,1,0"/>
    <vehicle id="up_49" type="car" route="up" depart="77" color="0,0,1"/>
    <vehicle id="down_50" type="car" route="down" depart="79" color="0,1,0"/>
    <vehicle id="up_51" type="car" route="up" depart="79" color="0,0,1"/>
    <vehicle id="down_52" type="car" route="down" depart="80" color="0,1,0"/>
    <vehicle id="down_53" type="car" route="down" depart="81" color="0,1,0"/>
    <vehicle id="up_54" type="car" route="up" depart="82" color="0,0,1"/>
    <vehicle id="down_55" type="car" route="down" depart="83" color="0,1,0"/>
    <vehicle id="down_56" type="car" route="down" depart="84" color="0,1,0"/>
    <vehicle id="up_57" type="car" route="up" depart="84" color="0,0,1"/>
    <vehicle id="up_58" type="car" route="up" depart="87" color="0,0,1"/>
    <vehicle id="down_59" type="car" route="down" depart="88" color="0,1,0"/>
    <vehicle id="up_60" type="car" route="up" depart="91" color="0,0,1"/>
    <vehicle id="up_61" type="car" route="up" depart="93" color="0,0,1"/>
    <vehicle id="down_62" type="car" route="down" depart="94" color="0,1,0"/>
    <vehicle id="down_63" type="car" route="down" depart="96" color="0,1,0"/>
    <vehicle id="up_64" type="car" route="up" depart="98" color="0,0,1"/>
    <vehicle id="up_65" type="car" route="up" depart="101" color="0,0,1"/>
    <vehicle id="up_66" type="car" route="up" depart="102" color="0,0,1"/>
    <vehicle id="up_67" type="car" route="up" depart="103" color="0,0,1"/>
    <vehicle id="down_68" type="car" route="down" depart="105" color="0,1,0"/>
    <vehicle id="down_69" type="car" route="down" depart="109" color="0,1,0"/>
    <vehicle id="down_70" type="car" route="down" depart="112" color="0,1,0"/>
    <vehicle id="down_71" type="car" route="down" depart="114" color="0,1,0"/>
    <vehicle id="down_72" type="car" route="down" depart="115" color="0,1,0"/>
    <vehicle id="up_73" type="car" route="up" depart="115" color="0,0,1"/>
    <vehicle id="down_74" type="car" route="down" depart="117" color="0,1,0"/>
    <vehicle id="up_75" type="car" route="up" depart="117" color="0,0,1"/>
    <vehicle id="up_76" type="car" route="up" depart="118" color="0,0,1"/>
    <vehicle id="down_77" type="car" route="down" depart="122" color="0,1,0"/>
    <vehicle id="down_78" type="car" route="down" depart="123" color="0,1,0"/>
    <vehicle id="down_79" type="car" route="down" depart="126" color="0,1,0"/>
    <vehicle id="down_80" type="car" route="down" depart="128" color="0,1,0"/>
    <vehicle id="up_81" type="car" route="up" depart="128" color="0,0,1"/>
    <vehicle id="down_82" type="car" route="down" depart="129" color="0,1,0"/>
    <vehicle id="up_83" type="car" route="up" depart="131" color="0,0,1"/>
    <vehicle id="up_84" type="car" route="up" depart="134" color="0,0,1"/>
    <vehicle id="down_85" type="car" route="down" depart="137" color="0,1,0"/>
    <vehicle id="up_86" type="car" route="up" depart="137" color="0,0,1"/>
    <vehicle id="down_87" type="car" route="down" depart="138" color="0,1,0"/>
    <vehicle id="up_88" type="car" route="up" depart="140" color="0,0,1"/>
    <vehicle id="up_89" type="car" route="up" depart="141" color="0,0,1"/>
    <vehicle id="up_90" type="car" route="up" depart="143" color="0,0,1"/>
    <vehicle id="down_91" type="car" route="down" depart="145" color="0,1,0"/>
    <vehicle id="up_92" type="car" route="up" depart="146" color="0,0,1"/>
    <vehicle id="up_93" type="car" route="up" depart="148" color="0,0,1"/>
    <vehicle id="down_94" type="car" route="down" depart="149" color="0,1,0"/>
    <vehicle id="down_95" type="car" route="down" depart="152" color="0,1,0"/>
    <vehicle id="up_96" type="car" route="up" depart="152" color="0,0,1"/>
    <vehicle id="up_97" type="car" route="up" depart="155" color="0,0,1"/>
    <vehicle id="down_98" type="car" route="down" depart="156" color="0,1,0"/>
    <vehicle id="up_99" type="car" route="up" depart="156" color="0,0,1"/>
    <vehicle id="down_100" type="car" route="down" depart="159" color="0,1,0"/>
    <vehicle id="down_101" type="car" route="down" depart="162" color="0,1,0"/>
    <vehicle id="up_102" type="car" route="up" depart="165" color="0,0,1"/>
    <vehicle id="up_103" type="car" route="up" depart="166" color="0,0,1"/>
    <vehicle id="down_104" type="car" route="down" depart="168" color="0,1,0"/>
    <vehicle id="up_105" type="car" route="up" depart="170" color="0,0,1"/>
    <vehicle id="down_106" type="car" route="down" depart="171" color="0,1,0"/>
    <vehicle id="up_107" type="car" route="up" depart="171" color="0,0,1"/>
    <vehicle id="up_108" type="car" route="up" depart="176" color="0,0,1"/>
    <vehicle id="up_109" type="car" route="up" depart="177" color="0,0,1"/>
    <vehicle id="up_110" type="car" route="up" depart="178" color="0,0,1"/>
    <vehicle id="down_111" type="car" route="down" depart="179" color="0,1,0"/>
    <vehicle id="down_112" type="car" route="down" depart="183" color="0,1,0"/>
    <vehicle id="down_113" type="car" route="down" depart="184" color="0,1,0"/>
    <vehicle id="up_114" type="car" route="up" depart="187" color="0,0,1"/>
    <vehicle id="down_115" type="car" route="down" depart="193" color="0,1,0"/>
    <vehicle id="down_116" type="car" route="down" depart="197" color="0,1,0"/>
    <vehicle id="up_117" type="car" route="up" depart="200" color="0,0,1"/>
    <vehicle id="up_118" type="car" route="up" depart="202" color="0,0,1"/>
    <vehicle id="down_119" type="car" route="down" depart="203" color="0,1,0"/>
    <vehicle id="up_120" type="car" route="up" depart="206" color="0,0,1"/>
    <vehicle id="down_121" type="car" route="down" depart="207" color="0,1,0"/>
    <vehicle id="up_122" type="car" route="up" depart="207" color="0,0,1"/>
    <vehicle id="down_123" type="car" route="down" depart="208" color="0,1,0"/>
    <vehicle id="up_124" type="car" route="up" depart="209" color="0,0,1"/>
    <vehicle id="down_125" type="car" route="down" depart="211" color="0,1,0"/>
    <vehicle id="up_126" type="car" route="up" depart="212" color="0,0,1"/>
    <vehicle id="up_127" type="car" route="up" depart="213" color="0,0,1"/>
    <vehicle id="down_128" type="car" route="down" depart="215" color="0,1,0"/>
    <vehicle id="down_129" type="car" route="down" depart="216" color="0,1,0"/>
    <vehicle id="up_130" type="car" route="up" depart="217" color="0,0,1"/>
    <vehicle id="down_131" type="car" route="down" depart="218" color="0,1,0"/>
    <vehicle id="up_132" type="car" route="up" depart="226" color="0,0,1"/>
    <vehicle id="down_133" type="car" route="down" depart="227" color="0,1,0"/>
    <vehicle id="down_134" type="car" route="down" depart="230" color="0,1,0"/>
    <vehicle id="up_135" type="car" route="up" depart="232" color="0,0,1"/>
    <vehicle id="down_136" type="car" route="down" depart="233" color="0,1,0"/>
    <vehicle id="up_137" type="car" route="up" depart="234" color="0,0,1"/>
    <vehicle id="up_138" type="car" route="up" depart="236" color="0,0,1"/>
    <vehicle id="up_139" type="car" route="up" depart="240" color="0,0,1"/>
    <vehicle id="down_140" type="car" route="down" depart="245" color="0,1,0"/>
    <vehicle id="up_141" type="car" route="up" depart="245" color="0,0,1"/>
    <vehicle id="up_142" type="car" route="up" depart="246" color="0,0,1"/>
    <vehicle id="up_143" type="car" route="up" depart="248" color="0,0,1"/>
    <vehicle id="up_144" type="car" route="up" depart="249" color="0,0,1"/>
    <vehicle id="up_145" type="car" route="up" depart="250" color="0,0,1"/>
    <vehicle id="down_146" type="car" route="down" depart="252" color="0,1,0"/>
    <vehicle id="down_147" type="car" route="down" depart="253" color="0,1,0"/>
    <vehicle id="down_148" type="car" route="down" depart="254" color="0,1,0"/>
    <vehicle id="down_149" type="car" route="down" depart="255" color="0,1,0"/>
    <vehicle id="down_150" type="car" route="down" depart="258" color="0,1,0"/>
    <vehicle id="up_151" type="car" route="up" depart="258" color="0,0,1"/>
    <vehicle id="down_152" type="car" route="down" depart="259" color="0,1,0"/>
    <vehicle id="up_153" type="car" route="up" depart="263" color="0,0,1"/>
    <vehicle id="down_154" type="car" route="down" depart="264" color="0,1,0"/>
    <vehicle id="up_155" type="car" route="up" depart="264" color="0,0,1"/>
    <vehicle id="down_156" type="car" route="down" depart="265" color="0,1,0"/>
    <vehicle id="up_157" type="car" route="up" depart="266" color="0,0,1"/>
    <vehicle id="down_158" type="car" route="down" depart="268" color="0,1,0"/>
    <vehicle id="up_159" type="car" route="up" depart="269" color="0,0,1"/>
    <vehicle id="down_160" type="car" route="down" depart="271" color="0,1,0"/>
    <vehicle id="up_161" type="car" route="up" depart="271" color="0,0,1"/>
    <vehicle id="up_162" type="car" route="up" depart="274" color="0,0,1"/>
    <vehicle id="down_163" type="car" route="down" depart="276" color="0,1,0"/>
    <vehicle id="down_164" type="car" route="down" depart="278" color="0,1,0"/>
    <vehicle id="down_165" type="car" route="down" depart="283" color="0,1,0"/>
    <vehicle id="down_166" type="car" route="down" depart="290" color="0,1,0"/>
    <vehicle id="up_167" type="car" route="up" depart="291" color="0,0,1"/>
    <vehicle id="up_168" type="car" route="up" depart="292" color="0,0,1"/>
    <vehicle id="up_169" type="car" route="up" depart="294" color="0,0,1"/>
    <vehicle id="up_170" type="car" route="up" depart="295" color="0,0,1"/>
    <vehicle id="down_171" type="car" route="down" depart="296" color="0,1,0"/>
    <vehicle id="down_172" type="car" route="down" depart="299" color="0,1,0"/>
    <vehicle id="down_173" type="car" route="down" depart="300" color="0,1,0"/>
    <vehicle id="down_174" type="car" route="down" depart="304" color="0,1,0"/>
    <vehicle id="up_175" type="car" route="up" depart="304" color="0,0,1"/>
    <vehicle id="down_176" type="car" route="down" depart="310" color="0,1,0"/>
    <vehicle id="up_177" type="car" route="up" depart="310" color="0,0,1"/>
    <vehicle id="down_178" type="car" route="down" depart="311" color="0,1,0"/>
    <vehicle id="up_179" type="car" route="up" depart="311" color="0,0,1"/>
    <vehicle id="down_180" type="car" route="down" depart="313" color="0,1,0"/>
    <vehicle id="up_181" type="car" route="up" depart="313" color="0,0,1"/>
    <vehicle id="up_182" type="car" route="up" depart="316" color="0,0,1"/>
    <vehicle id="down_183" type="car" route="down" depart="317" color="0,1,0"/>
    <vehicle id="up_184" type="car" route="up" depart="317" color="0,0,1"/>
    <vehicle id="down_185" type="car" route="down" depart="318" color="0,1,0"/>
    <vehicle id="up_186" type="car" route="up" depart="318" color="0,0,1"/>
    <vehicle id="up_187" type="car" route="up" depart="321" color="0,0,1"/>
    <vehicle id="down_188" type="car" route="down" depart="325" color="0,1,0"/>
    <vehicle id="up_189" type="car" route="up" depart="325" color="0,0,1"/>
    <vehicle id="down_190" type="car" route="down" depart="328" color="0,1,0"/>
    <vehicle id="down_191" type="car" route="down" depart="329" color="0,1,0"/>
    <vehicle id="up_192" type="car" route="up" depart="329" color="0,0,1"/>
    <vehicle id="up_193" type="car" route="up" depart="331" color="0,0,1"/>
    <vehicle id="up_194" type="car" route="up" depart="333" color="0,0,1"/>
    <vehicle id="down_195" type="car" route="down" depart="339" color="0,1,0"/>
    <vehicle id="up_196" type="car" route="up" depart="339" color="0,0,1"/>
    <vehicle id="up_197" type="car" route="up" depart="340" color="0,0,1"/>
    <vehicle id="down_198" type="car" route="down" depart="341" color="0,1,0"/>
    <vehicle id="up_199" type="car" route="up" depart="341" color="0,0,1"/>
    <vehicle id="down_200" type="car" route="down" depart="342" color="0,1,0"/>
    <vehicle id="down_201" type="car" route="down" depart="344" color="0,1,0"/>
    <vehicle id="up_202" type="car" route="up" depart="351" color="0,0,1"/>
    <vehicle id="down_203" type="car" route="down" depart="352" color="0,1,0"/>
    <vehicle id="up_204" type="car" route="up" depart="354" color="0,0,1"/>
    <vehicle id="up_205" type="car" route="up" depart="357" color="0,0,1"/>
    <vehicle id="down_206" type="car" route="down" depart="358" color="0,1,0"/>
    <vehicle id="up_207" type="car" route="up" depart="359" color="0,0,1"/>
    <vehicle id="down_208" type="car" route="down" depart="360" color="0,1,0"/>
    <vehicle id="up_209" type="car" route="up" depart="363" color="0,0,1"/>
    <vehicle id="down_210" type="car" route="down" depart="364" color="0,1,0"/>
    <vehicle id="up_211" type="car" route="up" depart="366" color="0,0,1"/>
    <vehicle id="up_212" type="car" route="up" depart="368" color="0,0,1"/>
    <vehicle id="down_213" type="car" route="down" depart="379" color="0,1,0"/>
    <vehicle id="up_214" type="car" route="up" depart="381" color="0,0,1"/>
    <vehicle id="down_215" type="car" route="down" depart="384" color="0,1,0"/>
    <vehicle id="up_216" type="car" route="up" depart="385" color="0,0,1"/>
    <vehicle id="down_217" type="car" route="down" depart="386" color="0,1,0"/>
    <vehicle id="up_218" type="car" route="up" depart="387" color="0,0,1"/>
    <vehicle id="up_219" type="car" route="up" depart="389" color="0,0,1"/>
    <vehicle id="up_220" type="car" route="up" depart="393" color="0,0,1"/>
    <vehicle id="up_221" type="car" route="up" depart="402" color="0,0,1"/>
    <vehicle id="down_222" type="car" route="down" depart="406" color="0,1,0"/>
    <vehicle id="up_223" type="car" route="up" depart="407" color="0,0,1"/>
    <vehicle id="up_224" type="car" route="up" depart="408" color="0,0,1"/>
    <vehicle id="down_225" type="car" route="down" depart="413" color="0,1,0"/>
    <vehicle id="up_226" type="car" route="up" depart="418" color="0,0,1"/>
    <vehicle id="up_227" type="car" route="up" depart="425" color="0,0,1"/>
    <vehicle id="down_228" type="car" route="down" depart="426" color="0,1,0"/>
    <vehicle id="down_229" type="car" route="down" depart="429" color="0,1,0"/>
    <vehicle id="down_230" type="car" route="down" depart="432" color="0,1,0"/>
    <vehicle id="down_231" type="car" route="down" depart="434" color="0,1,0"/>
    <vehicle id="down_232" type="car" route="down" depart="436" color="0,1,0"/>
    <vehicle id="up_233" type="car" route="up" depart="436" color="0,0,1"/>
    <vehicle id="down_234" type="car" route="down" depart="438" color="0,1,0"/>
    <vehicle id="down_235" type="car" route="down" depart="439" color="0,1,0"/>
    <vehicle id="down_236" type="car" route="down" depart="440" color="0,1,0"/>
    <vehicle id="up_237" type="car" route="up" depart="440" color="0,0,1"/>
    <vehicle id="down_238" type="car" route="down" depart="441" color="0,1,0"/>
    <vehicle id="down_239" type="car" route="down" depart="443" color="0,1,0"/>
    <vehicle id="down_240" type="car" route="down" depart="446" color="0,1,0"/>
    <vehicle id="down_241" type="car" route="down" depart="447" color="0,1,0"/>
    <vehicle id="up_242" type="car" route="up" depart="448" color="0,0,1"/>
    <vehicle id="down_243" type="car" route="down" depart="454" color="0,1,0"/>
    <vehicle id="up_244" type="car" route="up" depart="464" color="0,0,1"/>
    <vehicle id="down_245" type="car" route="down" depart="466" color="0,1,0"/>
    <vehicle id="up_246" type="car" route="up" depart="466" color="0,0,1"/>
    <vehicle id="up_247" type="car" route="up" depart="469" color="0,0,1"/>
    <vehicle id="up_248" type="car" route="up" depart="472" color="0,0,1"/>
    <vehicle id="up_249" type="car" route="up" depart="473" color="0,0,1"/>
    <vehicle id="down_250" type="car" route="down" depart="478" color="0,1,0"/>
    <vehicle id="down_251" type="car" route="down" depart="482" color="0,1,0"/>
    <vehicle id="up_252" type="car" route="up" depart="482" color="0,0,1"/>
    <vehicle id="down_253" type="car" route="down" depart="483" color="0,1,0"/>
    <vehicle id="down_254" type="car" route="down" depart="485" color="0,1,0"/>
    <vehicle id="up_255" type="car" route="up" depart="485" color="0,0,1"/>
    <vehicle id="down_256" type="car" route="down" depart="488" color="0,1,0"/>
    <vehicle id="down_257" type="car" route="down" depart="490" color="0,1,0"/>
    <vehicle id="down_258" type="car" route="down" depart="491" color="0,1,0"/>
    <vehicle id="up_259" type="car" route="up" depart="494" color="0,0,1"/>
    <vehicle id="up_260" type="car" route="up" depart="495" color="0,0,1"/>
    <vehicle id="up_261" type="car" route="up" depart="497" color="0,0,1"/>
    <vehicle id="down_262" type="car" route="down" depart="500" color="0,1,0"/>
    <vehicle id="down_263" type="car" route="down" depart="503" color="0,1,0"/>
    <vehicle id="up_264" type="car" route="up" depart="503" color="0,0,1"/>
    <vehicle id="up_265" type="car" route="up" depart="506" color="0,0,1"/>
    <vehicle id="up_266" type="car" route="up" depart="507" color="0,0,1"/>
    <vehicle id="down_267" type="car" route="down" depart="508" color="0,1,0"/>
    <vehicle id="down_268" type="car" route="down" depart="509" color="0,1,0"/>
    <vehicle id="down_269" type="car" route="down" depart="510" color="0,1,0"/>
    <vehicle id="up_270" type="car" route="up" depart="510" color="0,0,1"/>
    <vehicle id="down_271" type="car" route="down" depart="512" color="0,1,0"/>
    <vehicle id="down_272" type="car" route="down" depart="513" color="0,1,0"/>
    <vehicle id="down_273" type="car" route="down" depart="514" color="0,1,0"/>
    <vehicle id="up_274" type="car" route="up" depart="514" color="0,0,1"/>
    <vehicle id="down_275" type="car" route="down" depart="515" color="0,1,0"/>
    <vehicle id="up_276" type="car" route="up" depart="515" color="0,0,1"/>
    <vehicle id="up_277" type="car" route="up" depart="516" color="0,0,1"/>
    <vehicle id="down_278" type="car" route="down" depart="517" color="0,1,0"/>
    <vehicle id="down_279" type="car" route="down" depart="518" color="0,1,0"/>
    <vehicle id="down_280" type="car" route="down" depart="519" color="0,1,0"/>
    <vehicle id="up_281" type="car" route="up" depart="519" color="0,0,1"/>
    <vehicle id="down_282" type="car" route="down" depart="523" color="0,1,0"/>
    <vehicle id="up_283" type="car" route="up" depart="524" color="0,0,1"/>
    <vehicle id="up_284" type="car" route="up" depart="527" color="0,0,1"/>
    <vehicle id="up_285" type="car" route="up" depart="530" color="0,0,1"/>
    <vehicle id="down_286" type="car" route="down" depart="531" color="0,1,0"/>
    <vehicle id="down_287" type="car" route="down" depart="532" color="0,1,0"/>
    <vehicle id="up_288" type="car" route="up" depart="536" color="0,0,1"/>
    <vehicle id="up_289" type="car" route="up" depart="539" color="0,0,1"/>
    <vehicle id="up_290" type="car" route="up" depart="540" color="0,0,1"/>
    <vehicle id="up_291" type="car" route="up" depart="542" color="0,0,1"/>
    <vehicle id="up_292" type="car" route="up" depart="544" color="0,0,1"/>
    <vehicle id="up_293" type="car" route="up" depart="545" color="0,0,1"/>
    <vehicle id="up_294" type="car" route="up" depart="546" color="0,0,1"/>
    <vehicle id="down_295" type="car" route="down" depart="547" color="0,1,0"/>
    <vehicle id="up_296" type="car" route="up" depart="550" color="0,0,1"/>
    <vehicle id="up_297" type="car" route="up" depart="555" color="0,0,1"/>
    <vehicle id="up_298" type="car" route="up" depart="556" color="0,0,1"/>
    <vehicle id="down_299" type="car" route="down" depart="557" color="0,1,0"/>
    <vehicle id="up_300" type="car" route="up" depart="562" color="0,0,1"/>
    <vehicle id="down_301" type="car" route="down" depart="564" color="0,1,0"/>
    <vehicle id="up_302" type="car" route="up" depart="564" color="0,0,1"/>
    <vehicle id="up_303" type="car" route="up" depart="566" color="0,0,1"/>
    <vehicle id="up_304" type="car" route="up" depart="568" color="0,0,1"/>
    <vehicle id="up_305" type="car" route="up" depart="569" color="0,0,1"/>
    <vehicle id="up_306" type="car" route="up" depart="570" color="0,0,1"/>
    <vehicle id="down_307" type="car" route="down" depart="574" color="0,1,0"/>
    <vehicle id="up_308" type="car" route="up" depart="574" color="0,0,1"/>
    <vehicle id="down_309" type="car" route="down" depart="575" color="0,1,0"/>
    <vehicle id="up_310" type="car" route="up" depart="579" color="0,0,1"/>
    <vehicle id="up_311" type="car" route="up" depart="582" color="0,0,1"/>
    <vehicle id="down_312" type="car" route="down" depart="584" color="0,1,0"/>
    <vehicle id="down_313" type="car" route="down" depart="585" color="0,1,0"/>
    <vehicle id="up_314" type="car" route="up" depart="585" color="0,0,1"/>
    <vehicle id="down_315" type="car" route="down" depart="586" color="0,1,0"/>
    <vehicle id="down_316" type="car" route="down" depart="587" color="0,1,0"/>
    <vehicle id="down_317" type="car" route="down" depart="588" color="0,1,0"/>
    <vehicle id="down_318" type="car" route="down" depart="591" color="0,1,0"/>
    <vehicle id="down_319" type="car" route="down" depart="592" color="0,1,0"/>
    <vehicle id="up_320" type="car" route="up" depart="592" color="0,0,1"/>
    <vehicle id="down_321" type="car" route="down" depart="596" color="0,1,0"/>
    <vehicle id="up_322" type="car" route="up" depart="596" color="0,0,1"/>
    <vehicle id="up_323" type="car" route="up" depart="599" color="0,0,1"/>
    <vehicle id="up_324" type="car" route="up" depart="600" color="0,0,1"/>
    <vehicle id="down_325" type="car" route="down" depart="604" color="0,1,0"/>
    <vehicle id="down_326" type="car" route="down" depart="605" color="0,1,0"/>
    <vehicle id="up_327" type="car" route="up" depart="608" color="0,0,1"/>
    <vehicle id="down_328" type="car" route="down" depart="609" color="0,1,0"/>
    <vehicle id="up_329" type="car" route="up" depart="609" color="0,0,1"/>
    <vehicle id="up_330" type="car" route="up" depart="611" color="0,0,1"/>
    <vehicle id="up_331" type="car" route="up" depart="617" color="0,0,1"/>
    <vehicle id="down_332" type="car" route="down" depart="618" color="0,1,0"/>
    <vehicle id="down_333" type="car" route="down" depart="620" color="0,1,0"/>
    <vehicle id="down_334" type="car" route="down" depart="622" color="0,1,0"/>
    <vehicle id="down_335" type="car" route="down" depart="623" color="0,1,0"/>
    <vehicle id="down_336" type="car" route="down" depart="630" color="0,1,0"/>
    <vehicle id="up_337" type="car" route="up" depart="630" color="0,0,1"/>
    <vehicle id="down_338" type="car" route="down" depart="631" color="0,1,0"/>
    <vehicle id="up_339" type="car" route="up" depart="633" color="0,0,1"/>
    <vehicle id="down_340" type="car" route="down" depart="634" color="0,1,0"/>
    <vehicle id="down_341" type="car" route="down" depart="636" color="0,1,0"/>
    <vehicle id="down_342" type="car" route="down" depart="640" color="0,1,0"/>
    <vehicle id="up_343" type="car" route="up" depart="640" color="0,0,1"/>
    <vehicle id="down_344" type="car" route="down" depart="645" color="0,1,0"/>
    <vehicle id="down_345" type="car" route="down" depart="655" color="0,1,0"/>
    <vehicle id="up_346" type="car" route="up" depart="655" color="0,0,1"/>
    <vehicle id="down_347" type="car" route="down" depart="657" color="0,1,0"/>
    <vehicle id="up_348" type="car" route="up" depart="657" color="0,0,1"/>
    <vehicle id="down_349" type="car" route="down" depart="658" color="0,1,0"/>
    <vehicle id="down_350" type="car" route="down" depart="659" color="0,1,0"/>
    <vehicle id="down_351" type="car" route="down" depart="661" color="0,1,0"/>
    <vehicle id="up_352" type="car" route="up" depart="662" color="0,0,1"/>
    <vehicle id="up_353" type="car" route="up" depart="663" color="0,0,1"/>
    <vehicle id="up_354" type="car" route="up" depart="665" color="0,0,1"/>
    <vehicle id="up_355" type="car" route="up" depart="667" color="0,0,1"/>
    <vehicle id="up_356" type="car" route="up" depart="677" color="0,0,1"/>
    <vehicle id="down_357" type="car" route="down" depart="678" color="0,1,0"/>
    <vehicle id="down_358" type="car" route="down" depart="680" color="0,1,0"/>
    <vehicle id="up_359" type="car" route="up" depart="683" color="0,0,1"/>
    <vehicle id="down_360" type="car" route="down" depart="685" color="0,1,0"/>
    <vehicle id="up_361" type="car" route="up" depart="686" color="0,0,1"/>
    <vehicle id="down_362" type="car" route="down" depart="687" color="0,1,0"/>
    <vehicle id="down_363" type="car" route="down" depart="688" color="0,1,0"/>
    <vehicle id="up_364" type="car" route="up" depart="689" color="0,0,1"/>
    <vehicle id="down_365" type="car" route="down" depart="692" color="0,1,0"/>
    <vehicle id="down_366" type="car" route="down" depart="694" color="0,1,0"/>
    <vehicle id="up_367" type="car" route="up" depart="695" color="0,0,1"/>
    <vehicle id="down_368" type="car" route="down" depart="696" color="0,1,0"/>
    <vehicle id="up_369" type="car" route="up" depart="696" color="0,0,1"/>
    <vehicle id="down_370" type="car" route="down" depart="699" color="0,1,0"/>
    <vehicle id="up_371" type="car" route="up" depart="700" color="0,0,1"/>
    <vehicle id="up_372" type="car" route="up" depart="702" color="0,0,1"/>
    <vehicle id="down_373" type="car" route="down" depart="704" color="0,1,0"/>
    <vehicle id="down_374" type="car" route="down" depart="705" color="0,1,0"/>
    <vehicle id="up_375" type="car" route="up" depart="705" color="0,0,1"/>
    <vehicle id="down_376" type="car" route="down" depart="707" color="0,1,0"/>
    <vehicle id="up_377" type="car" route="up" depart="708" color="0,0,1"/>
    <vehicle id="up_378" type="car" route="up" depart="709" color="0,0,1"/>
    <vehicle id="down_379" type="car" route="down" depart="714" color="0,1,0"/>
    <vehicle id="up_380" type="car" route="up" depart="714" color="0,0,1"/>
    <vehicle id="up_381" type="car" route="up" depart="718" color="0,0,1"/>
    <vehicle id="down_382" type="car" route="down" depart="720" color="0,1,0"/>