<?xml version="1.0" encoding="UTF-8"?>

<!-- generated on 04/26/19 07:54:33 by Eclipse SUMO netedit Version 1.0.1
<configuration xmlns:xsi="http://www.w3.org/2001/XMLSchema-instance" xsi:noNamespaceSchemaLocation="http://sumo.dlr.de/xsd/netconvertConfiguration.xsd">

    <input>
        <sumo-net-file value="C:\Users\byang12\Documents\sumo\reproduce\link_property_explore\AL69.net.xml"/>
    </input>

    <output>
        <output-file value="C:\Users\byang12\Documents\sumo\reproduce\link_property_explore\AL69.net.xml"/>
    </output>

    <processing>
        <offset.disable-normalization value="true"/>
        <lefthand value="false"/>
    </processing>

    <junctions>
        <no-turnarounds value="true"/>
        <junctions.corner-detail value="5"/>
        <junctions.limit-turn-speed value="5.5"/>
        <rectangular-lane-cut value="false"/>
    </junctions>

    <pedestrian>
        <walkingareas value="false"/>
    </pedestrian>

</configuration>
-->

<net version="1.0" junctionCornerDetail="5" limitTurnSpeed="5.50" xmlns:xsi="http://www.w3.org/2001/XMLSchema-instance" xsi:noNamespaceSchemaLocation="http://sumo.dlr.de/xsd/net_file.xsd">

    <location netOffset="-445621.98,-3655182.69" convBoundary="0.00,0.00,3745.66,14590.90" origBoundary="-87.582325,33.033782,-87.524541,33.174160" projParameter="+proj=utm +zone=16 +ellps=WGS84 +datum=WGS84 +units=m +no_defs"/>

    <type id="highway.bridleway" priority="1" numLanes="1" speed="2.78" allow="pedestrian" oneway="1" width="2.00"/>
    <type id="highway.bus_guideway" priority="1" numLanes="1" speed="27.78" allow="bus" oneway="1"/>
    <type id="highway.cycleway" priority="1" numLanes="1" speed="8.33" allow="bicycle" oneway="0" width="1.00"/>
    <type id="highway.footway" priority="1" numLanes="1" speed="2.78" allow="pedestrian" oneway="1" width="2.00"/>
    <type id="highway.ford" priority="1" numLanes="1" speed="2.78" allow="army" oneway="0"/>
    <type id="highway.living_street" priority="3" numLanes="1" speed="2.78" disallow="tram rail_urban rail rail_electric ship" oneway="0"/>
    <type id="highway.motorway" priority="13" numLanes="2" speed="44.44" allow="private emergency authority army vip passenger hov taxi bus coach delivery truck trailer motorcycle evehicle custom1 custom2" oneway="1"/>
    <type id="highway.motorway_link" priority="12" numLanes="1" speed="22.22" allow="private emergency authority army vip passenger hov taxi bus coach delivery truck trailer motorcycle evehicle custom1 custom2" oneway="1"/>
    <type id="highway.path" priority="1" numLanes="1" speed="2.78" allow="bicycle pedestrian" oneway="1" width="2.00"/>
    <type id="highway.pedestrian" priority="1" numLanes="1" speed="2.78" allow="pedestrian" oneway="1" width="2.00"/>
    <type id="highway.primary" priority="9" numLanes="2" speed="27.78" disallow="tram rail_urban rail rail_electric ship" oneway="0"/>
    <type id="highway.primary_link" priority="8" numLanes="1" speed="22.22" disallow="tram rail_urban rail rail_electric ship" oneway="0"/>
    <type id="highway.raceway" priority="14" numLanes="2" speed="83.33" allow="vip" oneway="0"/>
    <type id="highway.residential" priority="4" numLanes="1" speed="13.89" disallow="tram rail_urban rail rail_electric ship" oneway="0"/>
    <type id="highway.secondary" priority="7" numLanes="2" speed="27.78" disallow="tram rail_urban rail rail_electric ship" oneway="0"/>
    <type id="highway.secondary_link" priority="6" numLanes="1" speed="22.22" disallow="tram rail_urban rail rail_electric ship" oneway="0"/>
    <type id="highway.service" priority="2" numLanes="1" speed="5.56" allow="delivery bicycle pedestrian" oneway="0"/>
    <type id="highway.stairs" priority="1" numLanes="1" speed="1.39" allow="pedestrian" oneway="1" width="2.00"/>
    <type id="highway.step" priority="1" numLanes="1" speed="1.39" allow="pedestrian" oneway="1" width="2.00"/>
    <type id="highway.steps" priority="1" numLanes="1" speed="1.39" allow="pedestrian" oneway="1" width="2.00"/>
    <type id="highway.tertiary" priority="6" numLanes="1" speed="22.22" disallow="tram rail_urban rail rail_electric ship" oneway="0"/>
    <type id="highway.tertiary_link" priority="5" numLanes="1" speed="22.22" disallow="tram rail_urban rail rail_electric ship" oneway="0"/>
    <type id="highway.track" priority="1" numLanes="1" speed="5.56" disallow="tram rail_urban rail rail_electric ship" oneway="0"/>
    <type id="highway.trunk" priority="11" numLanes="2" speed="27.78" disallow="tram rail_urban rail rail_electric bicycle pedestrian ship" oneway="0"/>
    <type id="highway.trunk_link" priority="10" numLanes="1" speed="22.22" disallow="tram rail_urban rail rail_electric bicycle pedestrian ship" oneway="0"/>
    <type id="highway.unclassified" priority="5" numLanes="1" speed="13.89" disallow="tram rail_urban rail rail_electric ship" oneway="0"/>
    <type id="highway.unsurfaced" priority="1" numLanes="1" speed="8.33" disallow="tram rail_urban rail rail_electric ship" oneway="0"/>
    <type id="railway.light_rail" priority="15" numLanes="1" speed="27.78" allow="rail_urban" oneway="1"/>
    <type id="railway.preserved" priority="15" numLanes="1" speed="27.78" allow="rail" oneway="1"/>
    <type id="railway.rail" priority="15" numLanes="1" speed="83.33" allow="rail rail_electric" oneway="1"/>
    <type id="railway.subway" priority="15" numLanes="1" speed="27.78" allow="rail_urban" oneway="1"/>
    <type id="railway.tram" priority="15" numLanes="1" speed="13.89" allow="tram" oneway="1"/>

    <edge id=":Intersection_2_0" function="internal">
        <lane id=":Intersection_2_0_0" index="0" disallow="tram rail_urban rail rail_electric ship" speed="5.79" length="9.17" shape="3175.27,13886.80 3174.69,13884.16 3173.47,13882.71 3171.60,13882.47 3169.08,13883.42"/>
    </edge>
    <edge id=":Intersection_2_1" function="internal">
        <lane id=":Intersection_2_1_0" index="0" disallow="tram rail_urban rail rail_electric bicycle pedestrian ship" speed="26.82" length="22.40" shape="3175.27,13886.80 3173.76,13864.45"/>
        <lane id=":Intersection_2_1_1" index="1" disallow="tram rail_urban rail rail_electric bicycle pedestrian ship" speed="26.82" length="22.40" shape="3178.46,13886.60 3176.95,13864.26"/>
    </edge>
    <edge id=":Intersection_2_3" function="internal">
        <lane id=":Intersection_2_3_0" index="0" disallow="tram rail_urban rail rail_electric ship" speed="13.45" length="21.12" shape="3178.46,13886.60 3179.67,13881.65 3184.08,13876.74 3191.68,13871.86 3192.04,13871.70"/>
    </edge>
    <edge id=":Intersection_2_16" function="internal">
        <lane id=":Intersection_2_16_0" index="0" speed="13.45" length="11.43" shape="3192.04,13871.70 3202.47,13867.01"/>
    </edge>
    <edge id=":Intersection_2_4" function="internal">
        <lane id=":Intersection_2_4_0" index="0" disallow="tram rail_urban rail rail_electric bicycle pedestrian ship" speed="10.06" length="17.60" shape="3203.63,13869.99 3200.75,13871.94 3198.80,13875.15 3197.80,13879.64 3197.73,13885.40"/>
    </edge>
    <edge id=":Intersection_2_5" function="internal">
        <lane id=":Intersection_2_5_0" index="0" disallow="tram rail_urban rail rail_electric ship" speed="13.89" length="37.07" shape="3203.63,13869.99 3196.89,13872.52 3186.26,13876.49 3175.68,13880.57 3169.08,13883.42"/>
    </edge>
    <edge id=":Intersection_2_6" function="internal">
        <lane id=":Intersection_2_6_0" index="0" disallow="tram rail_urban rail rail_electric bicycle pedestrian ship" speed="10.41" length="10.38" shape="3203.63,13869.99 3195.62,13872.03 3193.51,13872.08"/>
    </edge>
    <edge id=":Intersection_2_7" function="internal">
        <lane id=":Intersection_2_7_0" index="0" disallow="tram rail_urban rail rail_electric ship" speed="3.65" length="2.34" shape="3203.63,13869.99 3202.22,13869.68 3201.56,13869.08"/>
    </edge>
    <edge id=":Intersection_2_17" function="internal">
        <lane id=":Intersection_2_17_0" index="0" speed="10.41" length="20.26" shape="3193.51,13872.08 3187.03,13872.23 3180.07,13869.87 3176.95,13864.26"/>
    </edge>
    <edge id=":Intersection_2_18" function="internal">
        <lane id=":Intersection_2_18_0" index="0" speed="3.65" length="2.34" shape="3201.56,13869.08 3201.64,13868.19 3202.47,13867.01"/>
    </edge>
    <edge id=":Intersection_2_8" function="internal">
        <lane id=":Intersection_2_8_0" index="0" disallow="tram rail_urban rail rail_electric ship" speed="5.95" length="9.10" shape="3196.30,13863.08 3196.84,13865.64 3198.05,13867.15 3199.92,13867.61 3202.47,13867.01"/>
    </edge>
    <edge id=":Intersection_2_9" function="internal">
        <lane id=":Intersection_2_9_0" index="0" disallow="tram rail_urban rail rail_electric bicycle pedestrian ship" speed="26.82" length="22.37" shape="3196.30,13863.08 3197.73,13885.40"/>
        <lane id=":Intersection_2_9_1" index="1" disallow="tram rail_urban rail rail_electric bicycle pedestrian ship" speed="26.82" length="22.37" shape="3193.10,13863.27 3194.53,13885.60"/>
    </edge>
    <edge id=":Intersection_2_11" function="internal">
        <lane id=":Intersection_2_11_0" index="0" disallow="tram rail_urban rail rail_electric ship" speed="14.36" length="20.14" shape="3193.10,13863.27 3191.77,13867.08 3187.33,13871.71 3179.76,13877.15 3179.44,13877.34"/>
    </edge>
    <edge id=":Intersection_2_19" function="internal">
        <lane id=":Intersection_2_19_0" index="0" speed="14.36" length="12.01" shape="3179.44,13877.34 3169.08,13883.42"/>
    </edge>
    <edge id=":Intersection_2_12" function="internal">
        <lane id=":Intersection_2_12_0" index="0" disallow="tram rail_urban rail rail_electric bicycle pedestrian ship" speed="10.95" length="18.26" shape="3167.55,13880.61 3170.55,13878.18 3172.58,13874.67 3173.65,13870.10 3173.76,13864.45"/>
    </edge>
    <edge id=":Intersection_2_13" function="internal">
        <lane id=":Intersection_2_13_0" index="0" disallow="tram rail_urban rail rail_electric ship" speed="13.89" length="37.48" shape="3167.55,13880.61 3174.20,13877.73 3184.91,13873.59 3195.67,13869.57 3202.47,13867.01"/>
    </edge>
    <edge id=":Intersection_2_14" function="internal">
        <lane id=":Intersection_2_14_0" index="0" disallow="tram rail_urban rail rail_electric bicycle pedestrian ship" speed="10.12" length="11.21" shape="3167.55,13880.61 3175.38,13877.97 3178.33,13877.83"/>
    </edge>
    <edge id=":Intersection_2_15" function="internal">
        <lane id=":Intersection_2_15_0" index="0" disallow="tram rail_urban rail rail_electric ship" speed="3.65" length="2.49" shape="3167.55,13880.61 3168.99,13880.74 3169.72,13881.25 3169.73,13881.40"/>
    </edge>
    <edge id=":Intersection_2_20" function="internal">
        <lane id=":Intersection_2_20_0" index="0" speed="10.12" length="19.87" shape="3178.33,13877.83 3184.10,13877.57 3191.29,13879.94 3194.53,13885.60"/>
    </edge>
    <edge id=":Intersection_2_21" function="internal">
        <lane id=":Intersection_2_21_0" index="0" speed="3.65" length="2.19" shape="3169.73,13881.40 3169.75,13882.14 3169.08,13883.42"/>
    </edge>
    <edge id=":Intersection_3_0" function="internal">
        <lane id=":Intersection_3_0_0" index="0" disallow="tram rail_urban rail rail_electric bicycle pedestrian ship" speed="8.99" length="17.05" shape="3232.92,13408.86 3230.13,13409.16 3227.54,13411.31 3225.17,13415.30 3223.00,13421.15"/>
    </edge>
    <edge id=":Intersection_3_1" function="internal">
        <lane id=":Intersection_3_1_0" index="0" disallow="tram rail_urban rail rail_electric ship" speed="9.73" length="35.54" shape="3232.92,13408.86 3226.01,13408.41 3215.20,13408.45 3204.37,13408.75 3197.40,13409.06"/>
    </edge>
    <edge id=":Intersection_3_2" function="internal">
        <lane id=":Intersection_3_2_0" index="0" disallow="tram rail_urban rail rail_electric bicycle pedestrian ship" speed="10.85" length="8.09" shape="3232.92,13408.86 3225.08,13406.86"/>
    </edge>
    <edge id=":Intersection_3_3" function="internal">
        <lane id=":Intersection_3_3_0" index="0" disallow="tram rail_urban rail rail_electric ship" speed="3.65" length="2.07" shape="3232.92,13408.86 3231.92,13407.83 3231.76,13407.22"/>
    </edge>
    <edge id=":Intersection_3_16" function="internal">
        <lane id=":Intersection_3_16_0" index="0" speed="10.85" length="21.02" shape="3225.08,13406.86 3217.60,13403.79 3212.53,13399.35 3211.94,13393.18"/>
    </edge>
    <edge id=":Intersection_3_17" function="internal">
        <lane id=":Intersection_3_17_0" index="0" speed="3.65" length="2.60" shape="3231.76,13407.22 3231.70,13406.96 3232.26,13406.26 3233.60,13405.74"/>
    </edge>
    <edge id=":Intersection_3_4" function="internal">
        <lane id=":Intersection_3_4_0" index="0" disallow="tram rail_urban rail rail_electric ship" speed="6.39" length="9.09" shape="3229.60,13398.98 3229.26,13401.48 3229.81,13403.44 3231.26,13404.86 3233.60,13405.74"/>
    </edge>
    <edge id=":Intersection_3_5" function="internal">
        <lane id=":Intersection_3_5_0" index="0" disallow="tram rail_urban rail rail_electric bicycle pedestrian ship" speed="26.82" length="23.17" shape="3229.60,13398.98 3223.00,13421.15"/>
        <lane id=":Intersection_3_5_1" index="1" disallow="tram rail_urban rail rail_electric bicycle pedestrian ship" speed="26.82" length="23.17" shape="3226.56,13397.98 3219.94,13420.22"/>
    </edge>
    <edge id=":Intersection_3_7" function="internal">
        <lane id=":Intersection_3_7_0" index="0" disallow="tram rail_urban rail rail_electric ship" speed="13.76" length="9.04" shape="3226.56,13397.98 3223.73,13402.22 3220.30,13404.15"/>
    </edge>
    <edge id=":Intersection_3_18" function="internal">
        <lane id=":Intersection_3_18_0" index="0" speed="13.76" length="23.61" shape="3220.30,13404.15 3217.92,13405.48 3209.15,13407.76 3197.40,13409.06"/>
    </edge>
    <edge id=":Intersection_3_8" function="internal">
        <lane id=":Intersection_3_8_0" index="0" disallow="tram rail_urban rail rail_electric bicycle pedestrian ship" speed="10.80" length="19.01" shape="3197.21,13405.87 3200.70,13404.84 3203.81,13402.22 3206.55,13398.00 3208.90,13392.19"/>
    </edge>
    <edge id=":Intersection_3_9" function="internal">
        <lane id=":Intersection_3_9_0" index="0" disallow="tram rail_urban rail rail_electric ship" speed="9.73" length="36.42" shape="3197.21,13405.87 3204.31,13405.57 3215.44,13405.29 3226.55,13405.27 3233.60,13405.74"/>
    </edge>
    <edge id=":Intersection_3_10" function="internal">
        <lane id=":Intersection_3_10_0" index="0" disallow="tram rail_urban rail rail_electric bicycle pedestrian ship" speed="10.23" length="9.98" shape="3197.21,13405.87 3205.38,13406.51 3207.07,13407.08"/>
    </edge>
    <edge id=":Intersection_3_11" function="internal">
        <lane id=":Intersection_3_11_0" index="0" disallow="tram rail_urban rail rail_electric ship" speed="3.65" length="2.34" shape="3197.21,13405.87 3198.46,13406.59 3198.90,13407.37"/>
    </edge>
    <edge id=":Intersection_3_19" function="internal">
        <lane id=":Intersection_3_19_0" index="0" speed="10.23" length="20.40" shape="3207.07,13407.08 3213.41,13409.23 3219.02,13413.85 3219.94,13420.22"/>
    </edge>
    <edge id=":Intersection_3_20" function="internal">
        <lane id=":Intersection_3_20_0" index="0" speed="3.65" length="2.34" shape="3198.90,13407.37 3198.55,13408.19 3197.40,13409.06"/>
    </edge>
    <edge id=":Intersection_3_12" function="internal">
        <lane id=":Intersection_3_12_0" index="0" disallow="tram rail_urban rail rail_electric ship" speed="5.93" length="9.14" shape="3201.98,13414.74 3202.31,13412.12 3201.66,13410.29 3200.02,13409.27 3197.40,13409.06"/>
    </edge>
    <edge id=":Intersection_3_13" function="internal">
        <lane id=":Intersection_3_13_0" index="0" disallow="tram rail_urban rail rail_electric bicycle pedestrian ship" speed="26.82" length="23.56" shape="3201.98,13414.74 3208.90,13392.19"/>
        <lane id=":Intersection_3_13_1" index="1" disallow="tram rail_urban rail rail_electric bicycle pedestrian ship" speed="26.82" length="23.56" shape="3205.04,13415.68 3211.94,13393.18"/>
    </edge>
    <edge id=":Intersection_3_15" function="internal">
        <lane id=":Intersection_3_15_0" index="0" disallow="tram rail_urban rail rail_electric ship" speed="12.11" length="9.16" shape="3205.04,13415.68 3209.23,13409.75 3210.95,13408.95"/>
    </edge>
    <edge id=":Intersection_3_21" function="internal">
        <lane id=":Intersection_3_21_0" index="0" speed="12.11" length="23.35" shape="3210.95,13408.95 3216.64,13406.29 3225.38,13405.04 3233.60,13405.74"/>
    </edge>
    <edge id=":Intersection_4_0" function="internal">
        <lane id=":Intersection_4_0_0" index="0" disallow="tram rail_urban rail rail_electric bicycle pedestrian ship" speed="26.82" length="13.74" shape="3427.78,12944.70 3422.22,12957.21"/>
        <lane id=":Intersection_4_0_1" index="1" disallow="tram rail_urban rail rail_electric bicycle pedestrian ship" speed="26.82" length="13.74" shape="3424.89,12943.34 3419.28,12955.93"/>
    </edge>
    <edge id=":Intersection_4_2" function="internal">
        <lane id=":Intersection_4_2_0" index="0" disallow="tram rail_urban rail rail_electric ship" speed="11.37" length="18.59" shape="3424.89,12943.34 3420.26,12947.32 3413.56,12946.97 3408.14,12944.99"/>
    </edge>
    <edge id=":Intersection_4_9" function="internal">
        <lane id=":Intersection_4_9_0" index="0" speed="11.37" length="10.47" shape="3408.14,12944.99 3405.93,12944.18 3398.54,12940.83"/>
    </edge>
    <edge id=":Intersection_4_3" function="internal">
        <lane id=":Intersection_4_3_0" index="0" disallow="tram rail_urban rail rail_electric bicycle pedestrian ship" speed="6.61" length="9.14" shape="3399.81,12937.90 3402.24,12938.57 3404.32,12938.34 3406.03,12937.19 3407.39,12935.13"/>
    </edge>
    <edge id=":Intersection_4_4" function="internal">
        <lane id=":Intersection_4_4_0" index="0" disallow="tram rail_urban rail rail_electric bicycle pedestrian ship" speed="11.27" length="29.19" shape="3399.81,12937.90 3407.28,12941.11 3414.48,12944.97 3419.21,12949.80 3419.28,12955.93"/>
    </edge>
    <edge id=":Intersection_4_5" function="internal">
        <lane id=":Intersection_4_5_0" index="0" disallow="tram rail_urban rail rail_electric ship" speed="3.65" length="2.56" shape="3399.81,12937.90 3400.59,12939.11 3400.64,12940.00 3400.47,12940.14"/>
    </edge>
    <edge id=":Intersection_4_10" function="internal">
        <lane id=":Intersection_4_10_0" index="0" speed="3.65" length="2.12" shape="3400.47,12940.14 3399.96,12940.58 3398.54,12940.83"/>
    </edge>
    <edge id=":Intersection_4_6" function="internal">
        <lane id=":Intersection_4_6_0" index="0" disallow="tram rail_urban rail rail_electric ship" speed="6.47" length="9.01" shape="3401.40,12948.18 3402.08,12945.80 3401.83,12943.79 3400.65,12942.13 3398.54,12940.83"/>
    </edge>
    <edge id=":Intersection_4_7" function="internal">
        <lane id=":Intersection_4_7_0" index="0" disallow="tram rail_urban rail rail_electric bicycle pedestrian ship" speed="26.82" length="14.31" shape="3401.40,12948.18 3407.39,12935.13"/>
        <lane id=":Intersection_4_7_1" index="1" disallow="tram rail_urban rail rail_electric bicycle pedestrian ship" speed="26.82" length="14.31" shape="3404.33,12949.45 3410.29,12936.49"/>
    </edge>
    <edge id=":Intersection_5_0" function="internal">
        <lane id=":Intersection_5_0_0" index="0" disallow="tram rail_urban rail rail_electric bicycle pedestrian ship" speed="12.92" length="24.99" shape="3672.65,12378.57 3668.86,12380.22 3665.28,12384.03 3661.90,12390.02 3658.74,12398.18"/>
    </edge>
    <edge id=":Intersection_5_1" function="internal">
        <lane id=":Intersection_5_1_0" index="0" disallow="tram rail_urban rail rail_electric ship" speed="20.12" length="42.31" shape="3672.65,12378.57 3630.86,12385.17"/>
    </edge>
    <edge id=":Intersection_5_2" function="internal">
        <lane id=":Intersection_5_2_0" index="0" disallow="tram rail_urban rail rail_electric bicycle pedestrian ship" speed="10.49" length="8.23" shape="3672.65,12378.57 3664.43,12378.25"/>
    </edge>
    <edge id=":Intersection_5_3" function="internal">
        <lane id=":Intersection_5_3_0" index="0" disallow="tram rail_urban rail rail_electric ship" speed="3.65" length="2.34" shape="3672.65,12378.57 3671.35,12377.95 3670.84,12377.21"/>
    </edge>
    <edge id=":Intersection_5_16" function="internal">
        <lane id=":Intersection_5_16_0" index="0" speed="10.49" length="25.13" shape="3664.43,12378.25 3664.00,12378.23 3654.82,12375.38 3648.03,12370.46 3646.53,12363.93"/>
    </edge>
    <edge id=":Intersection_5_17" function="internal">
        <lane id=":Intersection_5_17_0" index="0" speed="3.65" length="2.34" shape="3670.84,12377.21 3671.12,12376.37 3672.19,12375.40"/>
    </edge>
    <edge id=":Intersection_5_4" function="internal">
        <lane id=":Intersection_5_4_0" index="0" disallow="tram rail_urban rail rail_electric ship" speed="5.81" length="9.17" shape="3667.51,12370.08 3667.17,12372.75 3667.84,12374.53 3669.51,12375.41 3672.19,12375.40"/>
    </edge>
    <edge id=":Intersection_5_5" function="internal">
        <lane id=":Intersection_5_5_0" index="0" disallow="tram rail_urban rail rail_electric bicycle pedestrian ship" speed="26.82" length="29.38" shape="3667.51,12370.08 3658.74,12398.18"/>
        <lane id=":Intersection_5_5_1" index="1" disallow="tram rail_urban rail rail_electric bicycle pedestrian ship" speed="26.82" length="29.38" shape="3664.44,12369.18 3655.70,12397.17"/>
    </edge>
    <edge id=":Intersection_5_7" function="internal">
        <lane id=":Intersection_5_7_0" index="0" disallow="tram rail_urban rail rail_electric ship" speed="15.65" length="10.58" shape="3664.44,12369.18 3661.23,12374.32 3657.45,12376.79"/>
    </edge>
    <edge id=":Intersection_5_18" function="internal">
        <lane id=":Intersection_5_18_0" index="0" speed="15.65" length="28.09" shape="3657.45,12376.79 3654.56,12378.70 3644.44,12382.31 3630.86,12385.17"/>
    </edge>
    <edge id=":Intersection_5_8" function="internal">
        <lane id=":Intersection_5_8_0" index="0" disallow="tram rail_urban rail rail_electric bicycle pedestrian ship" speed="12.56" length="24.07" shape="3630.35,12382.02 3634.14,12380.35 3637.58,12376.63 3640.69,12370.85 3643.45,12363.03"/>
    </edge>
    <edge id=":Intersection_5_9" function="internal">
        <lane id=":Intersection_5_9_0" index="0" disallow="tram rail_urban rail rail_electric ship" speed="20.12" length="42.36" shape="3630.35,12382.02 3672.19,12375.40"/>
    </edge>
    <edge id=":Intersection_5_10" function="internal">
        <lane id=":Intersection_5_10_0" index="0" disallow="tram rail_urban rail rail_electric bicycle pedestrian ship" speed="10.30" length="8.11" shape="3630.35,12382.02 3638.46,12382.35"/>
    </edge>
    <edge id=":Intersection_5_11" function="internal">
        <lane id=":Intersection_5_11_0" index="0" disallow="tram rail_urban rail rail_electric ship" speed="3.65" length="2.34" shape="3630.35,12382.02 3631.66,12382.61 3632.18,12383.34"/>
    </edge>
    <edge id=":Intersection_5_19" function="internal">
        <lane id=":Intersection_5_19_0" index="0" speed="10.30" length="25.00" shape="3638.46,12382.35 3638.92,12382.37 3647.91,12385.43 3654.45,12390.57 3655.70,12397.17"/>
    </edge>
    <edge id=":Intersection_5_20" function="internal">
        <lane id=":Intersection_5_20_0" index="0" speed="3.65" length="2.34" shape="3632.18,12383.34 3631.92,12384.19 3630.86,12385.17"/>
    </edge>
    <edge id=":Intersection_5_12" function="internal">
        <lane id=":Intersection_5_12_0" index="0" disallow="tram rail_urban rail rail_electric ship" speed="5.78" length="9.21" shape="3635.49,12390.47 3635.88,12387.76 3635.23,12385.98 3633.56,12385.11 3630.86,12385.17"/>
    </edge>
    <edge id=":Intersection_5_13" function="internal">
        <lane id=":Intersection_5_13_0" index="0" disallow="tram rail_urban rail rail_electric bicycle pedestrian ship" speed="26.82" length="28.63" shape="3635.49,12390.47 3643.45,12363.03"/>
        <lane id=":Intersection_5_13_1" index="1" disallow="tram rail_urban rail rail_electric bicycle pedestrian ship" speed="26.82" length="28.63" shape="3638.53,12391.47 3646.53,12363.93"/>
    </edge>
    <edge id=":Intersection_5_15" function="internal">
        <lane id=":Intersection_5_15_0" index="0" disallow="tram rail_urban rail rail_electric ship" speed="15.65" length="10.86" shape="3638.53,12391.47 3641.88,12386.08 3645.64,12383.58"/>
    </edge>
    <edge id=":Intersection_5_21" function="internal">
        <lane id=":Intersection_5_21_0" index="0" speed="15.65" length="28.02" shape="3645.64,12383.58 3648.61,12381.61 3658.71,12378.05 3672.19,12375.40"/>
    </edge>
    <edge id=":Intersection_6_0" function="internal">
        <lane id=":Intersection_6_0_0" index="0" disallow="tram rail_urban rail rail_electric ship" speed="12.93" length="28.32" shape="3385.85,11001.36 3381.68,10991.67 3377.63,10984.77 3373.68,10980.64 3369.85,10979.30"/>
    </edge>
    <edge id=":Intersection_6_1" function="internal">
        <lane id=":Intersection_6_1_0" index="0" disallow="tram rail_urban rail rail_electric bicycle pedestrian ship" speed="26.82" length="33.48" shape="3385.85,11001.36 3373.78,10970.14"/>
        <lane id=":Intersection_6_1_1" index="1" disallow="tram rail_urban rail rail_electric bicycle pedestrian ship" speed="26.82" length="33.48" shape="3388.83,11000.18 3376.75,10968.95"/>
    </edge>
    <edge id=":Intersection_6_3" function="internal">
        <lane id=":Intersection_6_3_0" index="0" disallow="tram rail_urban rail rail_electric ship" speed="10.27" length="22.50" shape="3388.83,11000.18 3390.19,10993.28 3397.40,10987.40 3403.17,10985.23"/>
    </edge>
    <edge id=":Intersection_6_16" function="internal">
        <lane id=":Intersection_6_16_0" index="0" speed="10.27" length="13.00" shape="3403.17,10985.23 3407.09,10983.75 3415.90,10983.55"/>
    </edge>
    <edge id=":Intersection_6_4" function="internal">
        <lane id=":Intersection_6_4_0" index="0" disallow="tram rail_urban rail rail_electric bicycle pedestrian ship" speed="5.56" length="9.39" shape="3415.08,10986.64 3412.21,10986.26 3410.54,10986.93 3410.07,10988.67 3410.79,10991.47"/>
    </edge>
    <edge id=":Intersection_6_5" function="internal">
        <lane id=":Intersection_6_5_0" index="0" disallow="tram rail_urban rail rail_electric ship" speed="13.89" length="45.84" shape="3415.08,10986.64 3406.68,10984.95 3392.53,10982.47 3378.35,10980.24 3369.85,10979.30"/>
    </edge>
    <edge id=":Intersection_6_6" function="internal">
        <lane id=":Intersection_6_6_0" index="0" disallow="tram rail_urban rail rail_electric bicycle pedestrian ship" speed="18.94" length="15.74" shape="3415.08,10986.64 3399.99,10982.18"/>
    </edge>
    <edge id=":Intersection_6_7" function="internal">
        <lane id=":Intersection_6_7_0" index="0" disallow="tram rail_urban rail rail_electric ship" speed="3.65" length="2.23" shape="3415.08,10986.64 3414.13,10985.56 3413.97,10984.80"/>
    </edge>
    <edge id=":Intersection_6_17" function="internal">
        <lane id=":Intersection_6_17_0" index="0" speed="18.94" length="27.21" shape="3399.99,10982.18 3399.58,10982.06 3388.02,10977.58 3380.41,10973.21 3376.75,10968.95"/>
    </edge>
    <edge id=":Intersection_6_18" function="internal">
        <lane id=":Intersection_6_18_0" index="0" speed="3.65" length="2.45" shape="3413.97,10984.80 3413.95,10984.69 3414.54,10984.02 3415.90,10983.55"/>
    </edge>
    <edge id=":Intersection_6_8" function="internal">
        <lane id=":Intersection_6_8_0" index="0" disallow="tram rail_urban rail rail_electric ship" speed="15.77" length="29.95" shape="3398.47,10960.22 3402.64,10969.51 3406.93,10976.49 3411.36,10981.17 3415.90,10983.55"/>
    </edge>
    <edge id=":Intersection_6_9" function="internal">
        <lane id=":Intersection_6_9_0" index="0" disallow="tram rail_urban rail rail_electric bicycle pedestrian ship" speed="26.82" length="33.59" shape="3398.47,10960.22 3410.79,10991.47"/>
        <lane id=":Intersection_6_9_1" index="1" disallow="tram rail_urban rail rail_electric bicycle pedestrian ship" speed="26.82" length="33.59" shape="3395.50,10961.41 3407.82,10992.65"/>
    </edge>
    <edge id=":Intersection_6_11" function="internal">
        <lane id=":Intersection_6_11_0" index="0" disallow="tram rail_urban rail rail_electric ship" speed="10.85" length="22.49" shape="3395.50,10961.41 3394.44,10968.11 3387.80,10973.80 3381.40,10976.55"/>
    </edge>
    <edge id=":Intersection_6_19" function="internal">
        <lane id=":Intersection_6_19_0" index="0" speed="10.85" length="11.94" shape="3381.40,10976.55 3378.59,10977.76 3369.85,10979.30"/>
    </edge>
    <edge id=":Intersection_6_12" function="internal">
        <lane id=":Intersection_6_12_0" index="0" disallow="tram rail_urban rail rail_electric bicycle pedestrian ship" speed="5.86" length="9.12" shape="3369.81,10976.10 3372.43,10975.70 3373.97,10974.57 3374.42,10972.72 3373.78,10970.14"/>
    </edge>
    <edge id=":Intersection_6_13" function="internal">
        <lane id=":Intersection_6_13_0" index="0" disallow="tram rail_urban rail rail_electric ship" speed="13.89" length="46.71" shape="3369.81,10976.10 3378.44,10977.06 3392.92,10979.32 3407.37,10981.84 3415.90,10983.55"/>
    </edge>
    <edge id=":Intersection_6_14" function="internal">
        <lane id=":Intersection_6_14_0" index="0" disallow="tram rail_urban rail rail_electric bicycle pedestrian ship" speed="16.14" length="28.65" shape="3369.81,10976.10 3383.92,10976.99 3394.96,10980.04 3397.51,10981.72"/>
    </edge>
    <edge id=":Intersection_6_15" function="internal">