<routes>
        <vType id="car" accel="0.8" decel="4.5" sigma="0.5" length="5" minGap="2.5" maxSpeed="22.352" guiShape="passenger"/>

        <route id="down" edges="Eab Ebc Ec1 E12 E23 E34 E45 E56 E67 E78 E89 E90 E0d Ede Eef" />
        <route id="up" edges="Efe Eed Ed0 E09 E98 E87 E76 E65 E54 E43 E32 E21 E1c Ecb Eba" />
        
    <vehicle id="up_0" type="car" route="up" depart="0" color="0,0,1"/>
    <vehicle id="down_1" type="car" route="down" depart="1" color="0,1,0"/>
    <vehicle id="up_2" type="car" route="up" depart="1" color="0,0,1"/>
    <vehicle id="up_3" type="car" route="up" depart="3" color="0,0,1"/>
    <vehicle id="up_4" type="car" route="up" depart="4" color="0,0,1"/>
    <vehicle id="down_5" type="car" route="down" depart="5" color="0,1,0"/>
    <vehicle id="down_6" type="car" route="down" depart="6" color="0,1,0"/>
    <vehicle id="up_7" type="car" route="up" depart="6" color="0,0,1"/>
    <vehicle id="down_8" type="car" route="down" depart="8" color="0,1,0"/>
    <vehicle id="up_9" type="car" route="up" depart="9" color="0,0,1"/>
    <vehicle id="down_10" type="car" route="down" depart="11" color="0,1,0"/>
    <vehicle id="up_11" type="car" route="up" depart="11" color="0,0,1"/>
    <vehicle id="up_12" type="car" route="up" depart="12" color="0,0,1"/>
    <vehicle id="down_13" type="car" route="down" depart="13" color="0,1,0"/>
    <vehicle id="up_14" type="car" route="up" depart="13" color="0,0,1"/>
    <vehicle id="up_15" type="car" route="up" depart="20" color="0,0,1"/>
    <vehicle id="down_16" type="car" route="down" depart="21" color="0,1,0"/>
    <vehicle id="up_17" type="car" route="up" depart="21" color="0,0,1"/>
    <vehicle id="down_18" type="car" route="down" depart="22" color="0,1,0"/>
    <vehicle id="up_19" type="car" route="up" depart="22" color="0,0,1"/>
    <vehicle id="down_20" type="car" route="down" depart="23" color="0,1,0"/>
    <vehicle id="up_21" type="car" route="up" depart="23" color="0,0,1"/>
    <vehicle id="up_22" type="car" route="up" depart="25" color="0,0,1"/>
    <vehicle id="down_23" type="car" route="down" depart="26" color="0,1,0"/>
    <vehicle id="down_24" type="car" route="down" depart="28" color="0,1,0"/>
    <vehicle id="down_25" type="car" route="down" depart="29" color="0,1,0"/>
    <vehicle id="down_26" type="car" route="down" depart="33" color="0,1,0"/>
    <vehicle id="up_27" type="car" route="up" depart="33" color="0,0,1"/>
    <vehicle id="down_28" type="car" route="down" depart="34" color="0,1,0"/>
    <vehicle id="up_29" type="car" route="up" depart="34" color="0,0,1"/>
    <vehicle id="down_30" type="car" route="down" depart="35" color="0,1,0"/>
    <vehicle id="up_31" type="car" route="up" depart="36" color="0,0,1"/>
    <vehicle id="down_32" type="car" route="down" depart="39" color="0,1,0"/>
    <vehicle id="up_33" type="car" route="up" depart="39" color="0,0,1"/>
    <vehicle id="up_34" type="car" route="up" depart="40" color="0,0,1"/>
    <vehicle id="up_35" type="car" route="up" depart="42" color="0,0,1"/>
    <vehicle id="down_36" type="car" route="down" depart="44" color="0,1,0"/>
    <vehicle id="up_37" type="car" route="up" depart="44" color="0,0,1"/>
    <vehicle id="down_38" type="car" route="down" depart="45" color="0,1,0"/>
    <vehicle id="down_39" type="car" route="down" depart="47" color="0,1,0"/>
    <vehicle id="down_40" type="car" route="down" depart="50" color="0,1,0"/>
    <vehicle id="down_41" type="car" route="down" depart="52" color="0,1,0"/>
    <vehicle id="down_42" type="car" route="down" depart="53" color="0,1,0"/>
    <vehicle id="up_43" type="car" route="up" depart="55" color="0,0,1"/>
    <vehicle id="up_44" type="car" route="up" depart="56" color="0,0,1"/>
    <vehicle id="down_45" type="car" route="down" depart="58" color="0,1,0"/>
    <vehicle id="up_46" type="car" route="up" depart="59" color="0,0,1"/>
    <vehicle id="down_47" type="car" route="down" depart="62" color="0,1,0"/>
    <vehicle id="up_48" type="car" route="up" depart="62" color="0,0,1"/>
    <vehicle id="down_49" type="car" route="down" depart="63" color="0,1,0"/>
    <vehicle id="down_50" type="car" route="down" depart="65" color="0,1,0"/>
    <vehicle id="up_51" type="car" route="up" depart="65" color="0,0,1"/>
    <vehicle id="down_52" type="car" route="down" depart="67" color="0,1,0"/>
    <vehicle id="down_53" type="car" route="down" depart="68" color="0,1,0"/>
    <vehicle id="up_54" type="car" route="up" depart="69" color="0,0,1"/>
    <vehicle id="down_55" type="car" route="down" depart="71" color="0,1,0"/>
    <vehicle id="up_56" type="car" route="up" depart="72" color="0,0,1"/>
    <vehicle id="down_57" type="car" route="down" depart="74" color="0,1,0"/>
    <vehicle id="up_58" type="car" route="up" depart="74" color="0,0,1"/>
    <vehicle id="down_59" type="car" route="down" depart="77" color="0,1,0"/>
    <vehicle id="up_60" type="car" route="up" depart="77" color="0,0,1"/>
    <vehicle id="down_61" type="car" route="down" depart="78" color="0,1,0"/>
    <vehicle id="down_62" type="car" route="down" depart="79" color="0,1,0"/>
    <vehicle id="up_63" type="car" route="up" depart="79" color="0,0,1"/>
    <vehicle id="down_64" type="car" route="down" depart="80" color="0,1,0"/>
    <vehicle id="down_65" type="car" route="down" depart="81" color="0,1,0"/>
    <vehicle id="up_66" type="car" route="up" depart="82" color="0,0,1"/>
    <vehicle id="down_67" type="car" route="down" depart="83" color="0,1,0"/>
    <vehicle id="down_68" type="car" route="down" depart="84" color="0,1,0"/>
    <vehicle id="up_69" type="car" route="up" depart="84" color="0,0,1"/>
    <vehicle id="up_70" type="car" route="up" depart="87" color="0,0,1"/>
    <vehicle id="down_71" type="car" route="down" depart="88" color="0,1,0"/>
    <vehicle id="up_72" type="car" route="up" depart="91" color="0,0,1"/>
    <vehicle id="up_73" type="car" route="up" depart="92" color="0,0,1"/>
    <vehicle id="up_74" type="car" route="up" depart="93" color="0,0,1"/>
    <vehicle id="down_75" type="car" route="down" depart="94" color="0,1,0"/>
    <vehicle id="up_76" type="car" route="up" depart="95" color="0,0,1"/>
    <vehicle id="down_77" type="car" route="down" depart="96" color="0,1,0"/>
    <vehicle id="up_78" type="car" route="up" depart="98" color="0,0,1"/>
    <vehicle id="up_79" type="car" route="up" depart="101" color="0,0,1"/>
    <vehicle id="up_80" type="car" route="up" depart="102" color="0,0,1"/>
    <vehicle id="up_81" type="car" route="up" depart="103" color="0,0,1"/>
    <vehicle id="down_82" type="car" route="down" depart="105" color="0,1,0"/>
    <vehicle id="down_83" type="car" route="down" depart="109" color="0,1,0"/>
    <vehicle id="up_84" type="car" route="up" depart="109" color="0,0,1"/>
    <vehicle id="down_85" type="car" route="down" depart="112" color="0,1,0"/>
    <vehicle id="down_86" type="car" route="down" depart="114" color="0,1,0"/>
    <vehicle id="down_87" type="car" route="down" depart="115" color="0,1,0"/>
    <vehicle id="up_88" type="car" route="up" depart="115" color="0,0,1"/>
    <vehicle id="down_89" type="car" route="down" depart="117" color="0,1,0"/>
    <vehicle id="up_90" type="car" route="up" depart="117" color="0,0,1"/>
    <vehicle id="up_91" type="car" route="up" depart="118" color="0,0,1"/>
    <vehicle id="down_92" type="car" route="down" depart="122" color="0,1,0"/>
    <vehicle id="down_93" type="car" route="down" depart="123" color="0,1,0"/>
    <vehicle id="up_94" type="car" route="up" depart="124" color="0,0,1"/>
    <vehicle id="down_95" type="car" route="down" depart="125" color="0,1,0"/>
    <vehicle id="down_96" type="car" route="down" depart="126" color="0,1,0"/>
    <vehicle id="down_97" type="car" route="down" depart="128" color="0,1,0"/>
    <vehicle id="up_98" type="car" route="up" depart="128" color="0,0,1"/>
    <vehicle id="down_99" type="car" route="down" depart="129" color="0,1,0"/>
    <vehicle id="up_100" type="car" route="up" depart="131" color="0,0,1"/>
    <vehicle id="up_101" type="car" route="up" depart="134" color="0,0,1"/>
    <vehicle id="up_102" type="car" route="up" depart="135" color="0,0,1"/>
    <vehicle id="down_103" type="car" route="down" depart="137" color="0,1,0"/>
    <vehicle id="up_104" type="car" route="up" depart="137" color="0,0,1"/>
    <vehicle id="down_105" type="car" route="down" depart="138" color="0,1,0"/>
    <vehicle id="down_106" type="car" route="down" depart="139" color="0,1,0"/>
    <vehicle id="up_107" type="car" route="up" depart="140" color="0,0,1"/>
    <vehicle id="up_108" type="car" route="up" depart="141" color="0,0,1"/>
    <vehicle id="up_109" type="car" route="up" depart="143" color="0,0,1"/>
    <vehicle id="up_110" type="car" route="up" depart="144" color="0,0,1"/>
    <vehicle id="down_111" type="car" route="down" depart="145" color="0,1,0"/>
    <vehicle id="up_112" type="car" route="up" depart="146" color="0,0,1"/>
    <vehicle id="up_113" type="car" route="up" depart="148" color="0,0,1"/>
    <vehicle id="down_114" type="car" route="down" depart="149" color="0,1,0"/>
    <vehicle id="down_115" type="car" route="down" depart="152" color="0,1,0"/>
    <vehicle id="up_116" type="car" route="up" depart="152" color="0,0,1"/>
    <vehicle id="down_117" type="car" route="down" depart="153" color="0,1,0"/>
    <vehicle id="up_118" type="car" route="up" depart="155" color="0,0,1"/>
    <vehicle id="down_119" type="car" route="down" depart="156" color="0,1,0"/>
    <vehicle id="up_120" type="car" route="up" depart="156" color="0,0,1"/>
    <vehicle id="down_121" type="car" route="down" depart="159" color="0,1,0"/>
    <vehicle id="down_122" type="car" route="down" depart="162" color="0,1,0"/>
    <vehicle id="down_123" type="car" route="down" depart="163" color="0,1,0"/>
    <vehicle id="up_124" type="car" route="up" depart="165" color="0,0,1"/>
    <vehicle id="up_125" type="car" route="up" depart="166" color="0,0,1"/>
    <vehicle id="down_126" type="car" route="down" depart="168" color="0,1,0"/>
    <vehicle id="up_127" type="car" route="up" depart="169" color="0,0,1"/>
    <vehicle id="up_128" type="car" route="up" depart="170" color="0,0,1"/>
    <vehicle id="down_129" type="car" route="down" depart="171" color="0,1,0"/>
    <vehicle id="up_130" type="car" route="up" depart="171" color="0,0,1"/>
    <vehicle id="down_131" type="car" route="down" depart="172" color="0,1,0"/>
    <vehicle id="up_132" type="car" route="up" depart="173" color="0,0,1"/>
    <vehicle id="up_133" type="car" route="up" depart="176" color="0,0,1"/>
    <vehicle id="up_134" type="car" route="up" depart="177" color="0,0,1"/>
    <vehicle id="up_135" type="car" route="up" depart="178" color="0,0,1"/>
    <vehicle id="down_136" type="car" route="down" depart="179" color="0,1,0"/>
    <vehicle id="up_137" type="car" route="up" depart="180" color="0,0,1"/>
    <vehicle id="down_138" type="car" route="down" depart="183" color="0,1,0"/>
    <vehicle id="down_139" type="car" route="down" depart="184" color="0,1,0"/>
    <vehicle id="up_140" type="car" route="up" depart="187" color="0,0,1"/>
    <vehicle id="up_141" type="car" route="up" depart="188" color="0,0,1"/>
    <vehicle id="down_142" type="car" route="down" depart="189" color="0,1,0"/>
    <vehicle id="up_143" type="car" route="up" depart="190" color="0,0,1"/>
    <vehicle id="down_144" type="car" route="down" depart="191" color="0,1,0"/>
    <vehicle id="up_145" type="car" route="up" depart="192" color="0,0,1"/>
    <vehicle id="down_146" type="car" route="down" depart="193" color="0,1,0"/>
    <vehicle id="down_147" type="car" route="down" depart="196" color="0,1,0"/>
    <vehicle id="down_148" type="car" route="down" depart="197" color="0,1,0"/>
    <vehicle id="up_149" type="car" route="up" depart="197" color="0,0,1"/>
    <vehicle id="up_150" type="car" route="up" depart="200" color="0,0,1"/>
    <vehicle id="up_151" type="car" route="up" depart="202" color="0,0,1"/>
    <vehicle id="down_152" type="car" route="down" depart="203" color="0,1,0"/>
    <vehicle id="up_153" type="car" route="up" depart="204" color="0,0,1"/>
    <vehicle id="up_154" type="car" route="up" depart="206" color="0,0,1"/>
    <vehicle id="down_155" type="car" route="down" depart="207" color="0,1,0"/>
    <vehicle id="up_156" type="car" route="up" depart="207" color="0,0,1"/>
    <vehicle id="down_157" type="car" route="down" depart="208" color="0,1,0"/>
    <vehicle id="up_158" type="car" route="up" depart="209" color="0,0,1"/>
    <vehicle id="down_159" type="car" route="down" depart="211" color="0,1,0"/>
    <vehicle id="up_160" type="car" route="up" depart="212" color="0,0,1"/>
    <vehicle id="up_161" type="car" route="up" depart="213" color="0,0,1"/>
    <vehicle id="down_162" type="car" route="down" depart="215" color="0,1,0"/>
    <vehicle id="down_163" type="car" route="down" depart="216" color="0,1,0"/>
    <vehicle id="up_164" type="car" route="up" depart="217" color="0,0,1"/>
    <vehicle id="down_165" type="car" route="down" depart="218" color="0,1,0"/>
    <vehicle id="up_166" type="car" route="up" depart="226" color="0,0,1"/>
    <vehicle id="down_167" type="car" route="down" depart="227" color="0,1,0"/>
    <vehicle id="up_168" type="car" route="up" depart="229" color="0,0,1"/>
    <vehicle id="down_169" type="car" route="down" depart="230" color="0,1,0"/>
    <vehicle id="up_170" type="car" route="up" depart="230" color="0,0,1"/>
    <vehicle id="down_171" type="car" route="down" depart="231" color="0,1,0"/>
    <vehicle id="up_172" type="car" route="up" depart="231" color="0,0,1"/>
    <vehicle id="up_173" type="car" route="up" depart="232" color="0,0,1"/>
    <vehicle id="down_174" type="car" route="down" depart="233" color="0,1,0"/>
    <vehicle id="up_175" type="car" route="up" depart="234" color="0,0,1"/>
    <vehicle id="up_176" type="car" route="up" depart="236" color="0,0,1"/>
    <vehicle id="up_177" type="car" route="up" depart="240" color="0,0,1"/>
    <vehicle id="down_178" type="car" route="down" depart="245" color="0,1,0"/>
    <vehicle id="up_179" type="car" route="up" depart="245" color="0,0,1"/>
    <vehicle id="up_180" type="car" route="up" depart="246" color="0,0,1"/>
    <vehicle id="down_181" type="car" route="down" depart="247" color="0,1,0"/>
    <vehicle id="up_182" type="car" route="up" depart="248" color="0,0,1"/>
    <vehicle id="up_183" type="car" route="up" depart="249" color="0,0,1"/>
    <vehicle id="up_184" type="car" route="up" depart="250" color="0,0,1"/>
    <vehicle id="down_185" type="car" route="down" depart="252" color="0,1,0"/>
    <vehicle id="down_186" type="car" route="down" depart="253" color="0,1,0"/>
    <vehicle id="down_187" type="car" route="down" depart="254" color="0,1,0"/>
    <vehicle id="down_188" type="car" route="down" depart="255" color="0,1,0"/>
    <vehicle id="up_189" type="car" route="up" depart="255" color="0,0,1"/>
    <vehicle id="down_190" type="car" route="down" depart="258" color="0,1,0"/>
    <vehicle id="up_191" type="car" route="up" depart="258" color="0,0,1"/>
    <vehicle id="down_192" type="car" route="down" depart="259" color="0,1,0"/>
    <vehicle id="up_193" type="car" route="up" depart="263" color="0,0,1"/>
    <vehicle id="down_194" type="car" route="down" depart="264" color="0,1,0"/>
    <vehicle id="up_195" type="car" route="up" depart="264" color="0,0,1"/>
    <vehicle id="down_196" type="car" route="down" depart="265" color="0,1,0"/>
    <vehicle id="up_197" type="car" route="up" depart="266" color="0,0,1"/>
    <vehicle id="down_198" type="car" route="down" depart="268" color="0,1,0"/>
    <vehicle id="up_199" type="car" route="up" depart="269" color="0,0,1"/>
    <vehicle id="down_200" type="car" route="down" depart="271" color="0,1,0"/>
    <vehicle id="up_201" type="car" route="up" depart="271" color="0,0,1"/>
    <vehicle id="down_202" type="car" route="down" depart="272" color="0,1,0"/>
    <vehicle id="up_203" type="car" route="up" depart="274" color="0,0,1"/>
    <vehicle id="down_204" type="car" route="down" depart="276" color="0,1,0"/>
    <vehicle id="down_205" type="car" route="down" depart="278" color="0,1,0"/>
    <vehicle id="up_206" type="car" route="up" depart="281" color="0,0,1"/>
    <vehicle id="down_207" type="car" route="down" depart="283" color="0,1,0"/>
    <vehicle id="down_208" type="car" route="down" depart="287" color="0,1,0"/>
    <vehicle id="down_209" type="car" route="down" depart="290" color="0,1,0"/>
    <vehicle id="up_210" type="car" route="up" depart="291" color="0,0,1"/>
    <vehicle id="up_211" type="car" route="up" depart="292" color="0,0,1"/>
    <vehicle id="up_212" type="car" route="up" depart="294" color="0,0,1"/>
    <vehicle id="up_213" type="car" route="up" depart="295" color="0,0,1"/>
    <vehicle id="down_214" type="car" route="down" depart="296" color="0,1,0"/>
    <vehicle id="down_215" type="car" route="down" depart="297" color="0,1,0"/>
    <vehicle id="up_216" type="car" route="up" depart="298" color="0,0,1"/>
    <vehicle id="down_217" type="car" route="down" depart="299" color="0,1,0"/>
    <vehicle id="down_218" type="car" route="down" depart="300" color="0,1,0"/>
    <vehicle id="down_219" type="car" route="down" depart="304" color="0,1,0"/>
    <vehicle id="up_220" type="car" route="up" depart="304" color="0,0,1"/>
    <vehicle id="up_221" type="car" route="up" depart="305" color="0,0,1"/>
    <vehicle id="up_222" type="car" route="up" depart="308" color="0,0,1"/>
    <vehicle id="up_223" type="car" route="up" depart="309" color="0,0,1"/>
    <vehicle id="down_224" type="car" route="down" depart="310" color="0,1,0"/>
    <vehicle id="up_225" type="car" route="up" depart="310" color="0,0,1"/>
    <vehicle id="down_226" type="car" route="down" depart="311" color="0,1,0"/>
    <vehicle id="up_227" type="car" route="up" depart="311" color="0,0,1"/>
    <vehicle id="down_228" type="car" route="down" depart="313" color="0,1,0"/>
    <vehicle id="up_229" type="car" route="up" depart="313" color="0,0,1"/>
    <vehicle id="down_230" type="car" route="down" depart="316" color="0,1,0"/>
    <vehicle id="up_231" type="car" route="up" depart="316" color="0,0,1"/>
    <vehicle id="down_232" type="car" route="down" depart="317" color="0,1,0"/>
    <vehicle id="up_233" type="car" route="up" depart="317" color="0,0,1"/>
    <vehicle id="down_234" type="car" route="down" depart="318" color="0,1,0"/>
    <vehicle id="up_235" type="car" route="up" depart="318" color="0,0,1"/>
    <vehicle id="up_236" type="car" route="up" depart="319" color="0,0,1"/>
    <vehicle id="up_237" type="car" route="up" depart="321" color="0,0,1"/>
    <vehicle id="down_238" type="car" route="down" depart="325" color="0,1,0"/>
    <vehicle id="up_239" type="car" route="up" depart="325" color="0,0,1"/>
    <vehicle id="down_240" type="car" route="down" depart="328" color="0,1,0"/>
    <vehicle id="down_241" type="car" route="down" depart="329" color="0,1,0"/>
    <vehicle id="up_242" type="car" route="up" depart="329" color="0,0,1"/>
    <vehicle id="up_243" type="car" route="up" depart="330" color="0,0,1"/>
    <vehicle id="up_244" type="car" route="up" depart="331" color="0,0,1"/>
    <vehicle id="up_245" type="car" route="up" depart="333" color="0,0,1"/>
    <vehicle id="up_246" type="car" route="up" depart="336" color="0,0,1"/>
    <vehicle id="down_247" type="car" route="down" depart="339" color="0,1,0"/>
    <vehicle id="up_248" type="car" route="up" depart="339" color="0,0,1"/>
    <vehicle id="up_249" type="car" route="up" depart="340" color="0,0,1"/>
    <vehicle id="down_250" type="car" route="down" depart="341" color="0,1,0"/>
    <vehicle id="up_251" type="car" route="up" depart="341" color="0,0,1"/>
    <vehicle id="down_252" type="car" route="down" depart="342" color="0,1,0"/>
    <vehicle id="up_253" type="car" route="up" depart="343" color="0,0,1"/>
    <vehicle id="down_254" type="car" route="down" depart="344" color="0,1,0"/>
    <vehicle id="up_255" type="car" route="up" depart="351" color="0,0,1"/>
    <vehicle id="down_256" type="car" route="down" depart="352" color="0,1,0"/>
    <vehicle id="up_257" type="car" route="up" depart="352" color="0,0,1"/>
    <vehicle id="down_258" type="car" route="down" depart="354" color="0,1,0"/>
    <vehicle id="up_259" type="car" route="up" depart="354" color="0,0,1"/>
    <vehicle id="up_260" type="car" route="up" depart="357" color="0,0,1"/>
    <vehicle id="down_261" type="car" route="down" depart="358" color="0,1,0"/>
    <vehicle id="down_262" type="car" route="down" depart="359" color="0,1,0"/>
    <vehicle id="up_263" type="car" route="up" depart="359" color="0,0,1"/>
    <vehicle id="down_264" type="car" route="down" depart="360" color="0,1,0"/>
    <vehicle id="up_265" type="car" route="up" depart="363" color="0,0,1"/>
    <vehicle id="down_266" type="car" route="down" depart="364" color="0,1,0"/>
    <vehicle id="up_267" type="car" route="up" depart="366" color="0,0,1"/>
    <vehicle id="up_268" type="car" route="up" depart="368" color="0,0,1"/>
    <vehicle id="up_269" type="car" route="up" depart="369" color="0,0,1"/>
    <vehicle id="down_270" type="car" route="down" depart="371" color="0,1,0"/>
    <vehicle id="down_271" type="car" route="down" depart="372" color="0,1,0"/>
    <vehicle id="up_272" type="car" route="up" depart="374" color="0,0,1"/>
    <vehicle id="down_273" type="car" route="down" depart="375" color="0,1,0"/>
    <vehicle id="down_274" type="car" route="down" depart="379" color="0,1,0"/>
    <vehicle id="up_275" type="car" route="up" depart="381" color="0,0,1"/>
    <vehicle id="down_276" type="car" route="down" depart="384" color="0,1,0"/>
    <vehicle id="up_277" type="car" route="up" depart="385" color="0,0,1"/>
    <vehicle id="down_278" type="car" route="down" depart="386" color="0,1,0"/>
    <vehicle id="up_279" type="car" route="up" depart="387" color="0,0,1"/>
    <vehicle id="up_280" type="car" route="up" depart="389" color="0,0,1"/>
    <vehicle id="down_281" type="car" route="down" depart="392" color="0,1,0"/>
    <vehicle id="up_282" type="car" route="up" depart="393" color="0,0,1"/>
    <vehicle id="down_283" type="car" route="down" depart="397" color="0,1,0"/>
    <vehicle id="down_284" type="car" route="down" depart="400" color="0,1,0"/>
    <vehicle id="up_285" type="car" route="up" depart="400" color="0,0,1"/>
    <vehicle id="up_286" type="car" route="up" depart="402" color="0,0,1"/>
    <vehicle id="up_287" type="car" route="up" depart="403" color="0,0,1"/>
    <vehicle id="up_288" type="car" route="up" depart="405" color="0,0,1"/>
    <vehicle id="down_289" type="car" route="down" depart="406" color="0,1,0"/>
    <vehicle id="up_290" type="car" route="up" depart="407" color="0,0,1"/>
    <vehicle id="up_291" type="car" route="up" depart="408" color="0,0,1"/>
    <vehicle id="down_292" type="car" route="down" depart="413" color="0,1,0"/>
    <vehicle id="up_293" type="car" route="up" depart="418" color="0,0,1"/>
    <vehicle id="down_294" type="car" route="down" depart="420" color="0,1,0"/>
    <vehicle id="up_295" type="car" route="up" depart="423" color="0,0,1"/>
    <vehicle id="up_296" type="car" route="up" depart="425" color="0,0,1"/>
    <vehicle id="down_297" type="car" route="down" depart="426" color="0,1,0"/>
    <vehicle id="down_298" type="car" route="down" depart="429" color="0,1,0"/>
    <vehicle id="down_299" type="car" route="down" depart="432" color="0,1,0"/>
    <vehicle id="down_300" type="car" route="down" depart="433" color="0,1,0"/>
    <vehicle id="down_301" type="car" route="down" depart="434" color="0,1,0"/>
    <vehicle id="down_302" type="car" route="down" depart="436" color="0,1,0"/>
    <vehicle id="up_303" type="car" route="up" depart="436" color="0,0,1"/>
    <vehicle id="down_304" type="car" route="down" depart="438" color="0,1,0"/>
    <vehicle id="down_305" type="car" route="down" depart="439" color="0,1,0"/>
    <vehicle id="down_306" type="car" route="down" depart="440" color="0,1,0"/>
    <vehicle id="up_307" type="car" route="up" depart="440" color="0,0,1"/>
    <vehicle id="down_308" type="car" route="down" depart="441" color="0,1,0"/>
    <vehicle id="down_309" type="car" route="down" depart="443" color="0,1,0"/>
    <vehicle id="down_310" type="car" route="down" depart="444" color="0,1,0"/>
    <vehicle id="down_311" type="car" route="down" depart="446" color="0,1,0"/>
    <vehicle id="down_312" type="car" route="down" depart="447" color="0,1,0"/>
    <vehicle id="up_313" type="car" route="up" depart="448" color="0,0,1"/>
    <vehicle id="up_314" type="car" route="up" depart="450" color="0,0,1"/>
    <vehicle id="down_315" type="car" route="down" depart="452" color="0,1,0"/>
    <vehicle id="down_316" type="car" route="down" depart="454" color="0,1,0"/>
    <vehicle id="down_317" type="car" route="down" depart="456" color="0,1,0"/>
    <vehicle id="up_318" type="car" route="up" depart="462" color="0,0,1"/>
    <vehicle id="up_319" type="car" route="up" depart="464" color="0,0,1"/>
    <vehicle id="down_320" type="car" route="down" depart="465" color="0,1,0"/>
    <vehicle id="down_321" type="car" route="down" depart="466" color="0,1,0"/>
    <vehicle id="up_322" type="car" route="up" depart="466" color="0,0,1"/>
    <vehicle id="up_323" type="car" route="up" depart="469" color="0,0,1"/>
    <vehicle id="down_324" type="car" route="down" depart="472" color="0,1,0"/>
    <vehicle id="up_325" type="car" route="up" depart="472" color="0,0,1"/>
    <vehicle id="up_326" type="car" route="up" depart="473" color="0,0,1"/>
    <vehicle id="down_327" type="car" route="down" depart="478" color="0,1,0"/>
    <vehicle id="down_328" type="car" route="down" depart="482" color="0,1,0"/>
    <vehicle id="up_329" type="car" route="up" depart="482" color="0,0,1"/>
    <vehicle id="down_330" type="car" route="down" depart="483" color="0,1,0"/>
    <vehicle id="down_331" type="car" route="down" depart="485" color="0,1,0"/>
    <vehicle id="up_332" type="car" route="up" depart="485" color="0,0,1"/>
    <vehicle id="down_333" type="car" route="down" depart="487" color="0,1,0"/>
    <vehicle id="down_334" type="car" route="down" depart="488" color="0,1,0"/>
    <vehicle id="down_335" type="car" route="down" depart="489" color="0,1,0"/>
    <vehicle id="down_336" type="car" route="down" depart="490" color="0,1,0"/>
    <vehicle id="down_337" type="car" route="down" depart="491" color="0,1,0"/>
    <vehicle id="up_338" type="car" route="up" depart="494" color="0,0,1"/>
    <vehicle id="up_339" type="car" route="up" depart="495" color="0,0,1"/>
    <vehicle id="up_340" type="car" route="up" depart="497" color="0,0,1"/>
    <vehicle id="down_341" type="car" route="down" depart="500" color="0,1,0"/>
    <vehicle id="down_342" type="car" route="down" depart="503" color="0,1,0"/>
    <vehicle id="up_343" type="car" route="up" depart="503" color="0,0,1"/>
    <vehicle id="up_344" type="car" route="up" depart="506" color="0,0,1"/>
    <vehicle id="up_345" type="car" route="up" depart="507" color="0,0,1"/>
    <vehicle id="down_346" type="car" route="down" depart="508" color="0,1,0"/>
    <vehicle id="down_347" type="car" route="down" depart="509" color="0,1,0"/>
    <vehicle id="down_348" type="car" route="down" depart="510" color="0,1,0"/>
    <vehicle id="up_349" type="car" route="up" depart="510" color="0,0,1"/>
    <vehicle id="up_350" type="car" route="up" depart="511" color="0,0,1"/>
    <vehicle id="down_351" type="car" route="down" depart="512" color="0,1,0"/>
    <vehicle id="down_352" type="car" route="down" depart="513" color="0,1,0"/>
    <vehicle id="down_353" type="car" route="down" depart="514" color="0,1,0"/>
    <vehicle id="up_354" type="car" route="up" depart="514" color="0,0,1"/>
    <vehicle id="down_355" type="car" route="down" depart="515" color="0,1,0"/>
    <vehicle id="up_356" type="car" route="up" depart="515" color="0,0,1"/>
    <vehicle id="up_357" type="car" route="up" depart="516" color="0,0,1"/>
    <vehicle id="down_358" type="car" route="down" depart="517" color="0,1,0"/>
    <vehicle id="down_359" type="car" route="down" depart="518" color="0,1,0"/>
    <vehicle id="up_360" type="car" route="up" depart="518" color="0,0,1"/>
    <vehicle id="down_361" type="car" route="down" depart="519" color="0,1,0"/>
    <vehicle id="up_362" type="car" route="up" depart="519" color="0,0,1"/>
    <vehicle id="down_363" type="car" route="down" depart="523" color="0,1,0"/>
    <vehicle id="up_364" type="car" route="up" depart="524" color="0,0,1"/>
    <vehicle id="up_365" type="car" route="up" depart="527" color="0,0,1"/>
    <vehicle id="up_366" type="car" route="up" depart="530" color="0,0,1"/>
    <vehicle id="down_367" type="car" route="down" depart="531" color="0,1,0"/>
    <vehicle id="down_368" type="car" route="down" depart="532" color="0,1,0"/>
    <vehicle id="up_369" type="car" route="up" depart="532" color="0,0,1"/>
    <vehicle id="down_370" type="car" route="down" depart="534" color="0,1,0"/>
    <vehicle id="up_371" type="car" route="up" depart="536" color="0,0,1"/>
    <vehicle id="up_372" type="car" route="up" depart="539" color="0,0,1"/>
    <vehicle id="up_373" type="car" route="up" depart="540" color="0,0,1"/>
    <vehicle id="down_374" type="car" route="down" depart="541" color="0,1,0"/>
    <vehicle id="up_375" type="car" route="up" depart="542" color="0,0,1"/>
    <vehicle id="up_376" type="car" route="up" depart="544" color="0,0,1"/>
    <vehicle id="up_377" type="car" route="up" depart="545" color="0,0,1"/>
    <vehicle id="up_378" type="car" route="up" depart="546" color="0,0,1"/>
    <vehicle id="down_379" type="car" route="down" depart="547" color="0,1,0"/>
    <vehicle id="down_380" type="car" route="down" depart="550" color="0,1,0"/>
    <vehicle id="up_381" type="car" route="up" depart="550" color="0,0,1"/>
    <vehicle id="up_382" type="car" route="up" depart="555" color="0,0,1"/>