<?xml version="1.0" encoding="UTF-8"?>

<!-- generated on 05/11/19 19:15:47 by Eclipse SUMO netedit Version 1.0.1
<configuration xmlns:xsi="http://www.w3.org/2001/XMLSchema-instance" xsi:noNamespaceSchemaLocation="http://sumo.dlr.de/xsd/netconvertConfiguration.xsd">

    <input>
        <sumo-net-file value="C:\Users\byang12\Documents\sumo\reproduce\link_property_explore\AL69_14Intersections.net.xml"/>
    </input>

    <output>
        <output-file value="C:\Users\byang12\Documents\sumo\reproduce\link_property_explore\AL69_14Intersections.net.xml"/>
    </output>

    <processing>
        <offset.disable-normalization value="true"/>
        <lefthand value="false"/>
    </processing>

    <junctions>
        <no-turnarounds value="true"/>
        <junctions.corner-detail value="5"/>
        <junctions.limit-turn-speed value="5.5"/>
        <rectangular-lane-cut value="false"/>
    </junctions>

    <pedestrian>
        <walkingareas value="false"/>
    </pedestrian>

</configuration>
-->

<net version="1.0" junctionCornerDetail="5" limitTurnSpeed="5.50" xmlns:xsi="http://www.w3.org/2001/XMLSchema-instance" xsi:noNamespaceSchemaLocation="http://sumo.dlr.de/xsd/net_file.xsd">

    <location netOffset="-445621.98,-3655182.69" convBoundary="0.00,0.00,3996.90,16207.46" origBoundary="-87.582325,33.033782,-87.524541,33.174160" projParameter="+proj=utm +zone=16 +ellps=WGS84 +datum=WGS84 +units=m +no_defs"/>

    <type id="highway.bridleway" priority="1" numLanes="1" speed="2.78" allow="pedestrian" oneway="1" width="2.00"/>
    <type id="highway.bus_guideway" priority="1" numLanes="1" speed="27.78" allow="bus" oneway="1"/>
    <type id="highway.cycleway" priority="1" numLanes="1" speed="8.33" allow="bicycle" oneway="0" width="1.00"/>
    <type id="highway.footway" priority="1" numLanes="1" speed="2.78" allow="pedestrian" oneway="1" width="2.00"/>
    <type id="highway.ford" priority="1" numLanes="1" speed="2.78" allow="army" oneway="0"/>
    <type id="highway.living_street" priority="3" numLanes="1" speed="2.78" disallow="tram rail_urban rail rail_electric ship" oneway="0"/>
    <type id="highway.motorway" priority="13" numLanes="2" speed="44.44" allow="private emergency authority army vip passenger hov taxi bus coach delivery truck trailer motorcycle evehicle custom1 custom2" oneway="1"/>
    <type id="highway.motorway_link" priority="12" numLanes="1" speed="22.22" allow="private emergency authority army vip passenger hov taxi bus coach delivery truck trailer motorcycle evehicle custom1 custom2" oneway="1"/>
    <type id="highway.path" priority="1" numLanes="1" speed="2.78" allow="bicycle pedestrian" oneway="1" width="2.00"/>
    <type id="highway.pedestrian" priority="1" numLanes="1" speed="2.78" allow="pedestrian" oneway="1" width="2.00"/>
    <type id="highway.primary" priority="9" numLanes="2" speed="27.78" disallow="tram rail_urban rail rail_electric ship" oneway="0"/>
    <type id="highway.primary_link" priority="8" numLanes="1" speed="22.22" disallow="tram rail_urban rail rail_electric ship" oneway="0"/>
    <type id="highway.raceway" priority="14" numLanes="2" speed="83.33" allow="vip" oneway="0"/>
    <type id="highway.residential" priority="4" numLanes="1" speed="13.89" disallow="tram rail_urban rail rail_electric ship" oneway="0"/>
    <type id="highway.secondary" priority="7" numLanes="2" speed="27.78" disallow="tram rail_urban rail rail_electric ship" oneway="0"/>
    <type id="highway.secondary_link" priority="6" numLanes="1" speed="22.22" disallow="tram rail_urban rail rail_electric ship" oneway="0"/>
    <type id="highway.service" priority="2" numLanes="1" speed="5.56" allow="delivery bicycle pedestrian" oneway="0"/>
    <type id="highway.stairs" priority="1" numLanes="1" speed="1.39" allow="pedestrian" oneway="1" width="2.00"/>
    <type id="highway.step" priority="1" numLanes="1" speed="1.39" allow="pedestrian" oneway="1" width="2.00"/>
    <type id="highway.steps" priority="1" numLanes="1" speed="1.39" allow="pedestrian" oneway="1" width="2.00"/>
    <type id="highway.tertiary" priority="6" numLanes="1" speed="22.22" disallow="tram rail_urban rail rail_electric ship" oneway="0"/>
    <type id="highway.tertiary_link" priority="5" numLanes="1" speed="22.22" disallow="tram rail_urban rail rail_electric ship" oneway="0"/>
    <type id="highway.track" priority="1" numLanes="1" speed="5.56" disallow="tram rail_urban rail rail_electric ship" oneway="0"/>
    <type id="highway.trunk" priority="11" numLanes="2" speed="27.78" disallow="tram rail_urban rail rail_electric bicycle pedestrian ship" oneway="0"/>
    <type id="highway.trunk_link" priority="10" numLanes="1" speed="22.22" disallow="tram rail_urban rail rail_electric bicycle pedestrian ship" oneway="0"/>
    <type id="highway.unclassified" priority="5" numLanes="1" speed="13.89" disallow="tram rail_urban rail rail_electric ship" oneway="0"/>
    <type id="highway.unsurfaced" priority="1" numLanes="1" speed="8.33" disallow="tram rail_urban rail rail_electric ship" oneway="0"/>
    <type id="railway.light_rail" priority="15" numLanes="1" speed="27.78" allow="rail_urban" oneway="1"/>
    <type id="railway.preserved" priority="15" numLanes="1" speed="27.78" allow="rail" oneway="1"/>
    <type id="railway.rail" priority="15" numLanes="1" speed="83.33" allow="rail rail_electric" oneway="1"/>
    <type id="railway.subway" priority="15" numLanes="1" speed="27.78" allow="rail_urban" oneway="1"/>
    <type id="railway.tram" priority="15" numLanes="1" speed="13.89" allow="tram" oneway="1"/>

    <edge id=":Intersection_0_0" function="internal">
        <lane id=":Intersection_0_0_0" index="0" speed="6.51" length="9.16" shape="2929.62,8897.57 2929.19,8895.05 2928.07,8893.30 2926.28,8892.30 2923.81,8892.06"/>
    </edge>
    <edge id=":Intersection_0_1" function="internal">
        <lane id=":Intersection_0_1_0" index="0" speed="20.36" length="14.60" shape="2929.62,8897.57 2929.09,8882.99"/>
        <lane id=":Intersection_0_1_1" index="1" speed="20.36" length="14.60" shape="2932.82,8897.46 2932.28,8882.85"/>
    </edge>
    <edge id=":Intersection_0_3" function="internal">
        <lane id=":Intersection_0_3_0" index="0" speed="11.73" length="4.95" shape="2932.82,8897.46 2934.93,8892.98"/>
    </edge>
    <edge id=":Intersection_0_14" function="internal">
        <lane id=":Intersection_0_14_0" index="0" speed="11.73" length="26.18" shape="2934.93,8892.98 2935.49,8891.79 2942.42,8889.04 2951.29,8888.05 2959.76,8887.69"/>
    </edge>
    <edge id=":Intersection_0_4" function="internal">
        <lane id=":Intersection_0_4_0" index="0" disallow="tram rail_urban rail rail_electric bicycle pedestrian ship" speed="6.58" length="9.12" shape="2959.94,8890.83 2957.47,8891.32 2955.74,8892.46 2954.73,8894.26 2954.46,8896.71"/>
    </edge>
    <edge id=":Intersection_0_5" function="internal">
        <lane id=":Intersection_0_5_0" index="0" speed="13.89" length="36.15" shape="2959.94,8890.83 2923.81,8892.06"/>
    </edge>
    <edge id=":Intersection_0_6" function="internal">
        <lane id=":Intersection_0_6_0" index="0" speed="11.61" length="20.14" shape="2959.94,8890.83 2951.47,8891.23 2942.53,8890.80 2939.96,8889.93"/>
    </edge>
    <edge id=":Intersection_0_15" function="internal">
        <lane id=":Intersection_0_15_0" index="0" speed="11.61" length="11.18" shape="2939.96,8889.93 2935.39,8888.39 2932.28,8882.85"/>
    </edge>
    <edge id=":Intersection_0_7" function="internal">
        <lane id=":Intersection_0_7_0" index="0" speed="6.61" length="9.44" shape="2953.87,8881.90 2954.35,8884.55 2955.48,8886.40 2957.29,8887.45 2959.76,8887.69"/>
    </edge>
    <edge id=":Intersection_0_8" function="internal">
        <lane id=":Intersection_0_8_0" index="0" disallow="tram rail_urban rail rail_electric bicycle pedestrian ship" speed="20.36" length="14.81" shape="2953.87,8881.90 2954.46,8896.71"/>
        <lane id=":Intersection_0_8_1" index="1" disallow="tram rail_urban rail rail_electric bicycle pedestrian ship" speed="20.36" length="14.81" shape="2950.67,8882.04 2951.27,8896.82"/>
    </edge>
    <edge id=":Intersection_0_10" function="internal">
        <lane id=":Intersection_0_10_0" index="0" speed="11.65" length="5.17" shape="2950.67,8882.04 2948.53,8886.75"/>
    </edge>
    <edge id=":Intersection_0_16" function="internal">
        <lane id=":Intersection_0_16_0" index="0" speed="11.65" length="26.01" shape="2948.53,8886.75 2948.08,8887.75 2941.16,8890.61 2932.29,8891.69 2923.81,8892.06"/>
    </edge>
    <edge id=":Intersection_0_11" function="internal">
        <lane id=":Intersection_0_11_0" index="0" speed="6.54" length="9.11" shape="2923.65,8888.86 2926.12,8888.39 2927.85,8887.25 2928.84,8885.46 2929.09,8882.99"/>
    </edge>
    <edge id=":Intersection_0_12" function="internal">
        <lane id=":Intersection_0_12_0" index="0" speed="13.89" length="36.13" shape="2923.65,8888.86 2959.76,8887.69"/>
    </edge>
    <edge id=":Intersection_0_13" function="internal">
        <lane id=":Intersection_0_13_0" index="0" disallow="tram rail_urban rail rail_electric bicycle pedestrian ship" speed="11.59" length="20.20" shape="2923.65,8888.86 2932.13,8888.49 2941.08,8888.91 2943.69,8889.78"/>
    </edge>
    <edge id=":Intersection_0_17" function="internal">
        <lane id=":Intersection_0_17_0" index="0" speed="11.59" length="11.08" shape="2943.69,8889.78 2948.21,8891.29 2951.27,8896.82"/>
    </edge>
    <edge id=":Intersection_1_0" function="internal">
        <lane id=":Intersection_1_0_0" index="0" speed="6.26" length="9.04" shape="3172.13,14479.03 3169.61,14478.99 3167.78,14479.79 3166.63,14481.43 3166.18,14483.91"/>
    </edge>
    <edge id=":Intersection_1_1" function="internal">
        <lane id=":Intersection_1_1_0" index="0" speed="13.89" length="30.95" shape="3172.13,14479.03 3165.95,14478.13 3156.80,14476.92 3147.63,14475.84 3141.41,14475.33"/>
    </edge>
    <edge id=":Intersection_1_2" function="internal">
        <lane id=":Intersection_1_2_0" index="0" disallow="tram rail_urban rail rail_electric bicycle pedestrian ship" speed="10.93" length="16.39" shape="3172.13,14479.03 3164.60,14477.92 3157.73,14476.27 3156.31,14475.32"/>
    </edge>
    <edge id=":Intersection_1_14" function="internal">
        <lane id=":Intersection_1_14_0" index="0" speed="10.93" length="10.02" shape="3156.31,14475.32 3152.93,14473.07 3151.59,14467.26"/>
    </edge>
    <edge id=":Intersection_1_3" function="internal">
        <lane id=":Intersection_1_3_0" index="0" speed="6.95" length="10.25" shape="3166.82,14469.00 3166.88,14471.63 3167.87,14473.66 3169.79,14475.09 3172.64,14475.93"/>
    </edge>
    <edge id=":Intersection_1_4" function="internal">
        <lane id=":Intersection_1_4_0" index="0" speed="20.36" length="15.07" shape="3166.82,14469.00 3166.33,14473.40 3166.23,14476.43 3166.26,14479.47 3166.18,14483.91"/>
        <lane id=":Intersection_1_4_1" index="1" speed="20.36" length="15.07" shape="3163.64,14468.64 3163.14,14473.11 3163.03,14476.19 3163.06,14479.28 3162.98,14483.79"/>
    </edge>
    <edge id=":Intersection_1_6" function="internal">
        <lane id=":Intersection_1_6_0" index="0" speed="10.86" length="7.89" shape="3163.64,14468.64 3161.88,14471.72 3158.00,14473.66"/>
    </edge>
    <edge id=":Intersection_1_15" function="internal">
        <lane id=":Intersection_1_15_0" index="0" speed="10.86" length="16.75" shape="3158.00,14473.66 3157.60,14473.87 3150.77,14475.07 3141.41,14475.33"/>
    </edge>
    <edge id=":Intersection_1_7" function="internal">
        <lane id=":Intersection_1_7_0" index="0" disallow="tram rail_urban rail rail_electric bicycle pedestrian ship" speed="6.96" length="9.75" shape="3141.47,14472.20 3144.28,14471.91 3146.37,14470.94 3147.74,14469.27 3148.41,14466.90"/>
    </edge>
    <edge id=":Intersection_1_8" function="internal">
        <lane id=":Intersection_1_8_0" index="0" speed="13.89" length="31.39" shape="3141.47,14472.20 3147.76,14472.71 3157.08,14473.80 3166.39,14475.02 3172.64,14475.93"/>
    </edge>
    <edge id=":Intersection_1_9" function="internal">
        <lane id=":Intersection_1_9_0" index="0" speed="10.84" length="16.81" shape="3141.47,14472.20 3149.10,14472.69 3156.12,14474.32 3157.73,14475.43"/>
    </edge>
    <edge id=":Intersection_1_16" function="internal">
        <lane id=":Intersection_1_16_0" index="0" speed="10.84" length="10.45" shape="3157.73,14475.43 3161.19,14477.79 3162.98,14483.79"/>
    </edge>
    <edge id=":Intersection_1_10" function="internal">
        <lane id=":Intersection_1_10_0" index="0" speed="7.01" length="10.79" shape="3146.74,14483.19 3146.52,14479.79 3145.56,14477.35 3143.86,14475.86 3141.41,14475.33"/>
    </edge>
    <edge id=":Intersection_1_11" function="internal">
        <lane id=":Intersection_1_11_0" index="0" disallow="tram rail_urban rail rail_electric bicycle pedestrian ship" speed="20.36" length="16.25" shape="3146.74,14483.19 3148.41,14466.90"/>
        <lane id=":Intersection_1_11_1" index="1" disallow="tram rail_urban rail rail_electric bicycle pedestrian ship" speed="20.36" length="16.25" shape="3149.94,14483.31 3151.59,14467.26"/>
    </edge>
    <edge id=":Intersection_1_13" function="internal">
        <lane id=":Intersection_1_13_0" index="0" speed="10.40" length="11.26" shape="3149.94,14483.31 3152.26,14477.71 3157.01,14475.59"/>
    </edge>
    <edge id=":Intersection_1_17" function="internal">
        <lane id=":Intersection_1_17_0" index="0" speed="10.40" length="15.75" shape="3157.01,14475.59 3157.73,14475.27 3164.98,14475.00 3172.64,14475.93"/>
    </edge>
    <edge id=":Intersection_2_0" function="internal">
        <lane id=":Intersection_2_0_0" index="0" disallow="tram rail_urban rail rail_electric ship" speed="5.79" length="9.17" shape="3175.27,13886.80 3174.69,13884.16 3173.47,13882.71 3171.60,13882.47 3169.08,13883.42"/>
    </edge>
    <edge id=":Intersection_2_1" function="internal">
        <lane id=":Intersection_2_1_0" index="0" disallow="tram rail_urban rail rail_electric bicycle pedestrian ship" speed="26.82" length="22.19" shape="3175.27,13886.80 3173.77,13864.66"/>
        <lane id=":Intersection_2_1_1" index="1" disallow="tram rail_urban rail rail_electric bicycle pedestrian ship" speed="26.82" length="22.19" shape="3178.46,13886.60 3176.97,13864.46"/>
    </edge>
    <edge id=":Intersection_2_3" function="internal">
        <lane id=":Intersection_2_3_0" index="0" disallow="tram rail_urban rail rail_electric ship" speed="13.16" length="21.32" shape="3178.46,13886.60 3179.65,13881.35 3184.05,13876.40 3191.66,13871.76 3192.03,13871.61"/>
    </edge>
    <edge id=":Intersection_2_16" function="internal">
        <lane id=":Intersection_2_16_0" index="0" speed="13.16" length="11.25" shape="3192.03,13871.61 3202.48,13867.42"/>
    </edge>
    <edge id=":Intersection_2_4" function="internal">
        <lane id=":Intersection_2_4_0" index="0" disallow="tram rail_urban rail rail_electric bicycle pedestrian ship" speed="9.73" length="17.17" shape="3203.50,13870.45 3200.68,13872.21 3198.77,13875.29 3197.79,13879.69 3197.73,13885.40"/>
    </edge>
    <edge id=":Intersection_2_5" function="internal">
        <lane id=":Intersection_2_5_0" index="0" disallow="tram rail_urban rail rail_electric ship" speed="13.89" length="36.79" shape="3203.50,13870.45 3196.74,13872.81 3186.16,13876.64 3175.65,13880.61 3169.08,13883.42"/>
    </edge>
    <edge id=":Intersection_2_6" function="internal">
        <lane id=":Intersection_2_6_0" index="0" disallow="tram rail_urban rail rail_electric bicycle pedestrian ship" speed="10.53" length="10.21" shape="3203.50,13870.45 3195.44,13872.27 3193.49,13872.30"/>
    </edge>
    <edge id=":Intersection_2_7" function="internal">
        <lane id=":Intersection_2_7_0" index="0" disallow="tram rail_urban rail rail_electric ship" speed="3.65" length="2.34" shape="3203.50,13870.45 3202.11,13870.07 3201.47,13869.44"/>
    </edge>
    <edge id=":Intersection_2_17" function="internal">
        <lane id=":Intersection_2_17_0" index="0" speed="10.53" length="20.23" shape="3193.49,13872.30 3186.91,13872.40 3180.04,13870.06 3176.97,13864.46"/>
    </edge>
    <edge id=":Intersection_2_18" function="internal">
        <lane id=":Intersection_2_18_0" index="0" speed="3.65" length="2.34" shape="3201.47,13869.44 3201.60,13868.56 3202.48,13867.42"/>
    </edge>
    <edge id=":Intersection_2_8" function="internal">
        <lane id=":Intersection_2_8_0" index="0" disallow="tram rail_urban rail rail_electric ship" speed="6.02" length="9.08" shape="3196.31,13863.29 3196.85,13865.82 3198.06,13867.36 3199.93,13867.89 3202.48,13867.42"/>
    </edge>
    <edge id=":Intersection_2_9" function="internal">
        <lane id=":Intersection_2_9_0" index="0" disallow="tram rail_urban rail rail_electric bicycle pedestrian ship" speed="26.82" length="22.16" shape="3196.31,13863.29 3197.73,13885.40"/>
        <lane id=":Intersection_2_9_1" index="1" disallow="tram rail_urban rail rail_electric bicycle pedestrian ship" speed="26.82" length="22.16" shape="3193.12,13863.48 3194.53,13885.60"/>
    </edge>
    <edge id=":Intersection_2_11" function="internal">
        <lane id=":Intersection_2_11_0" index="0" disallow="tram rail_urban rail rail_electric ship" speed="14.33" length="20.00" shape="3193.12,13863.48 3191.78,13867.20 3187.33,13871.76 3179.76,13877.17 3179.44,13877.35"/>
    </edge>
    <edge id=":Intersection_2_19" function="internal">
        <lane id=":Intersection_2_19_0" index="0" speed="14.33" length="12.00" shape="3179.44,13877.35 3169.08,13883.42"/>
    </edge>
    <edge id=":Intersection_2_12" function="internal">
        <lane id=":Intersection_2_12_0" index="0" disallow="tram rail_urban rail rail_electric bicycle pedestrian ship" speed="10.89" length="18.07" shape="3167.55,13880.61 3170.55,13878.19 3172.59,13874.72 3173.66,13870.21 3173.77,13864.66"/>
    </edge>
    <edge id=":Intersection_2_13" function="internal">
        <lane id=":Intersection_2_13_0" index="0" disallow="tram rail_urban rail rail_electric ship" speed="13.89" length="37.35" shape="3167.55,13880.61 3174.19,13877.76 3184.88,13873.72 3195.64,13869.82 3202.48,13867.42"/>
    </edge>
    <edge id=":Intersection_2_14" function="internal">
        <lane id=":Intersection_2_14_0" index="0" disallow="tram rail_urban rail rail_electric bicycle pedestrian ship" speed="10.12" length="11.38" shape="3167.55,13880.61 3175.38,13877.97 3178.49,13877.82"/>
    </edge>
    <edge id=":Intersection_2_15" function="internal">
        <lane id=":Intersection_2_15_0" index="0" disallow="tram rail_urban rail rail_electric ship" speed="3.65" length="2.49" shape="3167.55,13880.61 3168.99,13880.74 3169.72,13881.25 3169.73,13881.40"/>
    </edge>
    <edge id=":Intersection_2_20" function="internal">
        <lane id=":Intersection_2_20_0" index="0" speed="10.12" length="19.71" shape="3178.49,13877.82 3184.10,13877.57 3191.29,13879.94 3194.53,13885.60"/>
    </edge>
    <edge id=":Intersection_2_21" function="internal">
        <lane id=":Intersection_2_21_0" index="0" speed="3.65" length="2.18" shape="3169.73,13881.40 3169.75,13882.14 3169.08,13883.42"/>
    </edge>
    <edge id=":Intersection_3_0" function="internal">
        <lane id=":Intersection_3_0_0" index="0" disallow="tram rail_urban rail rail_electric bicycle pedestrian ship" speed="8.92" length="16.77" shape="3232.92,13408.86 3230.13,13409.14 3227.56,13411.23 3225.22,13415.14 3223.09,13420.86"/>
    </edge>
    <edge id=":Intersection_3_1" function="internal">
        <lane id=":Intersection_3_1_0" index="0" disallow="tram rail_urban rail rail_electric ship" speed="9.73" length="35.36" shape="3232.92,13408.86 3226.04,13408.36 3215.30,13408.29 3204.53,13408.42 3197.59,13408.49"/>
    </edge>
    <edge id=":Intersection_3_2" function="internal">
        <lane id=":Intersection_3_2_0" index="0" disallow="tram rail_urban rail rail_electric bicycle pedestrian ship" speed="10.85" length="8.21" shape="3232.92,13408.86 3225.08,13406.86 3224.97,13406.81"/>
    </edge>
    <edge id=":Intersection_3_3" function="internal">
        <lane id=":Intersection_3_3_0" index="0" disallow="tram rail_urban rail rail_electric ship" speed="3.65" length="2.08" shape="3232.92,13408.86 3231.92,13407.83 3231.76,13407.21"/>
    </edge>
    <edge id=":Intersection_3_16" function="internal">
        <lane id=":Intersection_3_16_0" index="0" speed="10.85" length="20.90" shape="3224.97,13406.81 3217.60,13403.79 3212.53,13399.35 3211.94,13393.18"/>
    </edge>
    <edge id=":Intersection_3_17" function="internal">
        <lane id=":Intersection_3_17_0" index="0" speed="3.65" length="2.59" shape="3231.76,13407.21 3231.70,13406.96 3232.26,13406.26 3233.60,13405.74"/>
    </edge>
    <edge id=":Intersection_3_4" function="internal">
        <lane id=":Intersection_3_4_0" index="0" disallow="tram rail_urban rail rail_electric ship" speed="6.39" length="9.09" shape="3229.60,13398.98 3229.26,13401.48 3229.81,13403.44 3231.26,13404.86 3233.60,13405.74"/>
    </edge>
    <edge id=":Intersection_3_5" function="internal">
        <lane id=":Intersection_3_5_0" index="0" disallow="tram rail_urban rail rail_electric bicycle pedestrian ship" speed="26.82" length="22.86" shape="3229.60,13398.98 3223.09,13420.86"/>
        <lane id=":Intersection_3_5_1" index="1" disallow="tram rail_urban rail rail_electric bicycle pedestrian ship" speed="26.82" length="22.86" shape="3226.56,13397.98 3220.03,13419.92"/>
    </edge>
    <edge id=":Intersection_3_7" function="internal">
        <lane id=":Intersection_3_7_0" index="0" disallow="tram rail_urban rail rail_electric ship" speed="13.31" length="8.07" shape="3226.56,13397.98 3223.61,13402.65 3221.39,13403.91"/>
    </edge>
    <edge id=":Intersection_3_18" function="internal">
        <lane id=":Intersection_3_18_0" index="0" speed="13.31" length="24.58" shape="3221.39,13403.91 3217.80,13405.96 3209.12,13407.90 3197.59,13408.49"/>
    </edge>
    <edge id=":Intersection_3_8" function="internal">
        <lane id=":Intersection_3_8_0" index="0" disallow="tram rail_urban rail rail_electric bicycle pedestrian ship" speed="10.27" length="18.38" shape="3197.61,13405.29 3200.93,13404.49 3203.92,13402.04 3206.58,13397.94 3208.90,13392.19"/>
    </edge>
    <edge id=":Intersection_3_9" function="internal">
        <lane id=":Intersection_3_9_0" index="0" disallow="tram rail_urban rail rail_electric ship" speed="9.73" length="36.01" shape="3197.61,13405.29 3204.65,13405.23 3215.65,13405.13 3226.62,13405.23 3233.60,13405.74"/>
    </edge>
    <edge id=":Intersection_3_10" function="internal">
        <lane id=":Intersection_3_10_0" index="0" disallow="tram rail_urban rail rail_electric bicycle pedestrian ship" speed="10.39" length="9.77" shape="3197.61,13405.29 3205.74,13406.26 3207.23,13406.79"/>
    </edge>
    <edge id=":Intersection_3_11" function="internal">
        <lane id=":Intersection_3_11_0" index="0" disallow="tram rail_urban rail rail_electric ship" speed="3.65" length="2.34" shape="3197.61,13405.29 3198.80,13406.10 3199.20,13406.90"/>
    </edge>
    <edge id=":Intersection_3_19" function="internal">
        <lane id=":Intersection_3_19_0" index="0" speed="10.39" length="20.34" shape="3207.23,13406.79 3213.66,13409.05 3219.16,13413.61 3220.03,13419.92"/>
    </edge>
    <edge id=":Intersection_3_20" function="internal">
        <lane id=":Intersection_3_20_0" index="0" speed="3.65" length="2.34" shape="3199.20,13406.90 3198.79,13407.70 3197.59,13408.49"/>
    </edge>
    <edge id=":Intersection_3_12" function="internal">
        <lane id=":Intersection_3_12_0" index="0" disallow="tram rail_urban rail rail_electric ship" speed="6.03" length="9.11" shape="3202.06,13414.45 3202.38,13411.86 3201.74,13410.00 3200.14,13408.88 3197.59,13408.49"/>
    </edge>
    <edge id=":Intersection_3_13" function="internal">
        <lane id=":Intersection_3_13_0" index="0" disallow="tram rail_urban rail rail_electric bicycle pedestrian ship" speed="26.82" length="23.26" shape="3202.06,13414.45 3208.90,13392.19"/>
        <lane id=":Intersection_3_13_1" index="1" disallow="tram rail_urban rail rail_electric bicycle pedestrian ship" speed="26.82" length="23.26" shape="3205.12,13415.38 3211.94,13393.18"/>
    </edge>
    <edge id=":Intersection_3_15" function="internal">
        <lane id=":Intersection_3_15_0" index="0" disallow="tram rail_urban rail rail_electric ship" speed="12.08" length="7.21" shape="3205.12,13415.38 3209.30,13409.50"/>
    </edge>
    <edge id=":Intersection_3_21" function="internal">
        <lane id=":Intersection_3_21_0" index="0" speed="12.08" length="25.14" shape="3209.30,13409.50 3216.68,13406.14 3225.40,13404.99 3233.60,13405.74"/>
    </edge>
    <edge id=":Intersection_4_0" function="internal">
        <lane id=":Intersection_4_0_0" index="0" disallow="tram rail_urban rail rail_electric bicycle pedestrian ship" speed="26.82" length="13.74" shape="3427.78,12944.70 3422.22,12957.21"/>
        <lane id=":Intersection_4_0_1" index="1" disallow="tram rail_urban rail rail_electric bicycle pedestrian ship" speed="26.82" length="13.74" shape="3424.89,12943.34 3419.28,12955.93"/>
    </edge>
    <edge id=":Intersection_4_2" function="internal">
        <lane id=":Intersection_4_2_0" index="0" disallow="tram rail_urban rail rail_electric ship" speed="11.37" length="18.59" shape="3424.89,12943.34 3420.26,12947.32 3413.56,12946.97 3408.14,12944.99"/>
    </edge>
    <edge id=":Intersection_4_9" function="internal">
        <lane id=":Intersection_4_9_0" index="0" speed="11.37" length="10.47" shape="3408.14,12944.99 3405.93,12944.18 3398.54,12940.83"/>
    </edge>
    <edge id=":Intersection_4_3" function="internal">
        <lane id=":Intersection_4_3_0" index="0" disallow="tram rail_urban rail rail_electric bicycle pedestrian ship" speed="6.61" length="9.14" shape="3399.81,12937.90 3402.24,12938.57 3404.32,12938.34 3406.03,12937.19 3407.39,12935.13"/>
    </edge>
    <edge id=":Intersection_4_4" function="internal">
        <lane id=":Intersection_4_4_0" index="0" disallow="tram rail_urban rail rail_electric bicycle pedestrian ship" speed="11.27" length="29.19" shape="3399.81,12937.90 3407.28,12941.11 3414.48,12944.97 3419.21,12949.80 3419.28,12955.93"/>
    </edge>
    <edge id=":Intersection_4_5" function="internal">
        <lane id=":Intersection_4_5_0" index="0" disallow="tram rail_urban rail rail_electric ship" speed="3.65" length="2.56" shape="3399.81,12937.90 3400.59,12939.11 3400.64,12940.00 3400.47,12940.14"/>
    </edge>
    <edge id=":Intersection_4_10" function="internal">
        <lane id=":Intersection_4_10_0" index="0" speed="3.65" length="2.12" shape="3400.47,12940.14 3399.96,12940.58 3398.54,12940.83"/>
    </edge>
    <edge id=":Intersection_4_6" function="internal">
        <lane id=":Intersection_4_6_0" index="0" disallow="tram rail_urban rail rail_electric ship" speed="6.47" length="9.01" shape="3401.40,12948.18 3402.08,12945.80 3401.83,12943.79 3400.65,12942.13 3398.54,12940.83"/>
    </edge>
    <edge id=":Intersection_4_7" function="internal">
        <lane id=":Intersection_4_7_0" index="0" disallow="tram rail_urban rail rail_electric bicycle pedestrian ship" speed="26.82" length="14.31" shape="3401.40,12948.18 3407.39,12935.13"/>
        <lane id=":Intersection_4_7_1" index="1" disallow="tram rail_urban rail rail_electric bicycle pedestrian ship" speed="26.82" length="14.31" shape="3404.33,12949.45 3410.29,12936.49"/>
    </edge>
    <edge id=":Intersection_5_0" function="internal">
        <lane id=":Intersection_5_0_0" index="0" disallow="tram rail_urban rail rail_electric bicycle pedestrian ship" speed="12.92" length="24.99" shape="3672.65,12378.57 3668.86,12380.22 3665.28,12384.03 3661.90,12390.02 3658.74,12398.18"/>
    </edge>
    <edge id=":Intersection_5_1" function="internal">
        <lane id=":Intersection_5_1_0" index="0" disallow="tram rail_urban rail rail_electric ship" speed="20.12" length="42.31" shape="3672.65,12378.57 3630.86,12385.17"/>
    </edge>
    <edge id=":Intersection_5_2" function="internal">
        <lane id=":Intersection_5_2_0" index="0" disallow="tram rail_urban rail rail_electric bicycle pedestrian ship" speed="10.49" length="8.23" shape="3672.65,12378.57 3664.43,12378.25"/>
    </edge>
    <edge id=":Intersection_5_3" function="internal">
        <lane id=":Intersection_5_3_0" index="0" disallow="tram rail_urban rail rail_electric ship" speed="3.65" length="2.34" shape="3672.65,12378.57 3671.35,12377.95 3670.84,12377.21"/>
    </edge>
    <edge id=":Intersection_5_16" function="internal">
        <lane id=":Intersection_5_16_0" index="0" speed="10.49" length="25.13" shape="3664.43,12378.25 3664.00,12378.23 3654.82,12375.38 3648.03,12370.46 3646.53,12363.93"/>
    </edge>
    <edge id=":Intersection_5_17" function="internal">
        <lane id=":Intersection_5_17_0" index="0" speed="3.65" length="2.34" shape="3670.84,12377.21 3671.12,12376.37 3672.19,12375.40"/>
    </edge>
    <edge id=":Intersection_5_4" function="internal">
        <lane id=":Intersection_5_4_0" index="0" disallow="tram rail_urban rail rail_electric ship" speed="5.81" length="9.17" shape="3667.51,12370.08 3667.17,12372.75 3667.84,12374.53 3669.51,12375.41 3672.19,12375.40"/>
    </edge>
    <edge id=":Intersection_5_5" function="internal">
        <lane id=":Intersection_5_5_0" index="0" disallow="tram rail_urban rail rail_electric bicycle pedestrian ship" speed="26.82" length="29.38" shape="3667.51,12370.08 3658.74,12398.18"/>
        <lane id=":Intersection_5_5_1" index="1" disallow="tram rail_urban rail rail_electric bicycle pedestrian ship" speed="26.82" length="29.38" shape="3664.44,12369.18 3655.70,12397.17"/>
    </edge>
    <edge id=":Intersection_5_7" function="internal">
        <lane id=":Intersection_5_7_0" index="0" disallow="tram rail_urban rail rail_electric ship" speed="15.65" length="10.58" shape="3664.44,12369.18 3661.23,12374.32 3657.45,12376.79"/>
    </edge>